Auto-Transcript Start Time:  01:08:38, 14 Aug 2025 GMT Summer Time 
Current Directory: "C:\Users\V.Chepuri\OneDrive - Cranfield University\irp\pablo\GCI\try_2\coarse"

              Welcome to ANSYS Fluent 2024 R2

              Copyright 1987-2024 ANSYS, Inc. All Rights Reserved.
              Unauthorized use, distribution or duplication is prohibited.
              This product is subject to U.S. laws governing export and re-export.
              For full Legal Notice, see documentation.

Build Time: May 13 2024 11:28:30 EST  Build Id: 10192  
 
Connected License Server List:	1055@cclic-2.central.cranfield.ac.uk

*********************************************
Info: Your license enables 4-way parallel execution.
For faster simulations, please start the application with the appropriate parallel options.
*********************************************


     --------------------------------------------------------------
     This is an academic version of ANSYS FLUENT. Usage of this product
     license is limited to the terms and conditions specified in your ANSYS
     license form, additional terms section.
     --------------------------------------------------------------
Host spawning Node 0 on machine "37PCL050" (win64).

-------------------------------------------------------------------------------
ID    Hostname  Core  O.S.         PID    Vendor                          
-------------------------------------------------------------------------------
n0    37PCL050  1/28  Windows-x64  24312  Intel(R) Core(TM) i7-14700      
host  37PCL050        Windows-x64  24976  Intel(R) Core(TM) i7-14700      

MPI Option Selected: intel
-------------------------------------------------------------------------------

Cleanup script file is C:\\Users\\V.Chepuri\\OneDrive - Cranfield University\\irp\\pablo\\GCI\\try_2\\coarse\\cleanup-fluent-37PCL050-24976.bat

Posting ANSYS Product Improvement Program startup data
Done.

> (cx-gui-do cx-activate-item "Key Behavioral Changes*PanelButtons*PushButton1(OK)")
(cx-gui-do cx-activate-item "MenuBar*ReadSubMenu*Case...")
(cx-gui-do cx-set-file-dialog-entries "Select File" '( "template_medium.cas.h5") "CFF Case Files (*.cas.h5 *.msh.h5 *.MSH.h5 )")
Fast-loading "C:\PROGRA~1\ANSYSI~1\v242\fluent\fluent24.2.0\\addons\afd\lib\hdfio.bin"
Done.
Note: Rank = 0: Process affinity not being set (6).

Reading from 37PCL050:"C:/Users/V.Chepuri/OneDrive - Cranfield University/irp/pablo/GCI/try_2/coarse/template_medium.cas.h5" in NODE0 mode ...
  Reading mesh ...
      142418 cells,     3 cell zones ...
           9206 mixed cells,  zone id: 2
         106661 mixed cells,  zone id: 4
          26551 mixed cells,  zone id: 12
      240367 faces,    11 face zones ...
          16170 2D interior faces,  zone id: 3
         178860 2D interior faces,  zone id: 5
             42 2D velocity-inlet faces,  zone id: 6
             38 2D pressure-outlet faces,  zone id: 7
             40 2D velocity-inlet faces,  zone id: 8
            229 2D interior faces,  zone id: 9
            228 2D interior faces,  zone id: 10
             20 2D parent-face faces,  zone id: 17
             19 2D parent-face faces,  zone id: 16
             21 2D parent-face faces,  zone id: 15
          44700 2D parent-face faces,  zone id: 14
       79741 nodes,     1 node zone  ...
  Done.


Building...
     mesh
     materials,
     interface,
     domains,
	mixture
     zones,
	outlet
	inlet
	interior-fluid
	interior-porous
	symmetry
	upper
	lower
	fluid
	porous
WARNING: "Smooth" contours can't be displayed when node-values is set to off. Changing the Coloring type to "Banded".
     parallel,
Done.
(cx-gui-do cx-activate-item "ToolBar*Mesh Display*fl_mesh_svg_graphics_toolbar")
(cx-gui-do cx-activate-item "Mesh Display*PanelButtons*PushButton1(OK)")
(cx-gui-do cx-activate-item "Mesh Display*PanelButtons*PushButton2(Cancel)")
(cx-gui-do cx-activate-item "MenuBar*ReadSubMenu*Journal...")

Reading journal file C:/Users/V.Chepuri/OneDrive - Cranfield University/irp/pablo/GCI/try_2/coarse/template.jou...

> ;change to correct dir

file/read-case template_medium.cas.h5 Note: Rank = 0: Process affinity not being set (6).

       Clearing partially read grid.

Reading from 37PCL050:"C:\Users\V.Chepuri\OneDrive - Cranfield University\irp\pablo\GCI\try_2\coarse\template_medium.cas.h5" in NODE0 mode ...
  Reading mesh ...
      142418 cells,     3 cell zones ...
           9206 mixed cells,  zone id: 2
         106661 mixed cells,  zone id: 4
          26551 mixed cells,  zone id: 12
      240367 faces,    11 face zones ...
          16170 2D interior faces,  zone id: 3
         178860 2D interior faces,  zone id: 5
             42 2D velocity-inlet faces,  zone id: 6
             38 2D pressure-outlet faces,  zone id: 7
             40 2D velocity-inlet faces,  zone id: 8
            229 2D interior faces,  zone id: 9
            228 2D interior faces,  zone id: 10
             20 2D parent-face faces,  zone id: 17
             19 2D parent-face faces,  zone id: 16
             21 2D parent-face faces,  zone id: 15
          44700 2D parent-face faces,  zone id: 14
       79741 nodes,     1 node zone  ...
  Done.


Building...
     mesh
     materials,
     interface,
     domains,
	mixture
     zones,
	outlet
	inlet
	interior-fluid
	interior-porous
	symmetry
	upper
	lower
	fluid
	porous
WARNING: "Smooth" contours can't be displayed when node-values is set to off. Changing the Coloring type to "Banded".
     parallel,
Done.
OK


Overwrite confirmations (/file/set-batch-options ...)
are on -- will therefore ignore the following journal
Error: invalid command: OK


> 
adjoint/                parallel/               server/
define/                 parametric-study/       solve/
display/                plot/                   surface/
exit                    preferences/            views/
file/                   print-license-usage
mesh/                   report/

> 
adjoint/                parallel/               server/
define/                 parametric-study/       solve/
display/                plot/                   surface/
exit                    preferences/            views/
file/                   print-license-usage
mesh/                   report/

> 
adjoint/                parallel/               server/
define/                 parametric-study/       solve/
display/                plot/                   surface/
exit                    preferences/            views/
file/                   print-license-usage
mesh/                   report/

> ;run simulation
solve/initialize/initialize-flow

> solve/iterate 2000

  iter  continuity  x-velocity  y-velocity     time/iter
     1  1.0000e+00  5.8116e-05  1.5186e-02  0:00:00 1999
     2  1.0000e+00  1.7015e-04  1.1083e-02  0:33:18 1998
     3  5.8161e-01  1.5980e-04  7.8970e-03  0:26:38 1997
     4  3.8403e-01  1.3644e-04  5.1763e-03  0:27:57 1996
     5  2.7376e-01  1.1242e-04  3.1091e-03  0:22:21 1995
     6  2.0978e-01  9.6267e-05  1.7543e-03  0:17:52 1994
     7  1.7339e-01  8.5105e-05  9.4915e-04  0:14:17 1993
     8  1.4932e-01  7.5602e-05  5.0038e-04  0:11:25 1992
     9  1.3089e-01  6.7791e-05  2.6006e-04  0:15:46 1991
    10  1.1370e-01  6.0354e-05  1.3436e-04  0:12:37 1990
    11  9.8457e-02  5.3401e-05  6.9553e-05  0:10:05 1989

  iter  continuity  x-velocity  y-velocity     time/iter
    12  8.2958e-02  4.5024e-05  3.6432e-05  0:14:41 1988
    13  7.2713e-02  3.9893e-05  1.9691e-05  0:11:45 1987
    14  6.2563e-02  3.4053e-05  1.1191e-05  0:09:23 1986
    15  5.4878e-02  2.9291e-05  6.9070e-06  0:07:31 1985
    16  4.8795e-02  2.5455e-05  4.7133e-06  0:06:00 1984
    17  4.3376e-02  2.2274e-05  3.5736e-06  0:04:48 1983
    18  3.8828e-02  1.9347e-05  2.9762e-06  0:10:27 1982
    19  3.4988e-02  1.6844e-05  2.5922e-06  0:08:21 1981
    20  3.1548e-02  1.4650e-05  2.3066e-06  0:06:41 1980
    21  2.8345e-02  1.2834e-05  2.1038e-06  0:05:20 1979
    22  2.5508e-02  1.1299e-05  1.9365e-06  0:04:16 1978

  iter  continuity  x-velocity  y-velocity     time/iter
    23  2.2909e-02  9.9301e-06  1.7826e-06  0:03:25 1977
    24  2.0608e-02  8.7630e-06  1.6363e-06  0:09:19 1976
    25  1.8559e-02  7.7641e-06  1.5074e-06  0:07:27 1975
    26  1.6695e-02  6.8775e-06  1.3917e-06  0:05:57 1974
    27  1.5134e-02  6.0920e-06  1.2905e-06  0:04:46 1973
    28  1.3789e-02  5.3927e-06  1.2006e-06  0:03:49 1972
    29  1.2583e-02  4.7585e-06  1.1218e-06  0:09:37 1971
    30  1.1520e-02  4.1969e-06  1.0536e-06  0:07:41 1970
    31  1.0577e-02  3.7046e-06  9.9118e-07  0:06:09 1969
    32  9.7314e-03  3.2713e-06  9.3425e-07  0:04:55 1968
    33  8.9363e-03  2.8891e-06  8.8101e-07  0:03:56 1967

  iter  continuity  x-velocity  y-velocity     time/iter
    34  8.2993e-03  2.5575e-06  8.3688e-07  0:03:09 1966
    35  7.6923e-03  2.2588e-06  7.9925e-07  0:09:04 1965
    36  7.1584e-03  1.9801e-06  7.6288e-07  0:07:15 1964
    37  6.7049e-03  1.7435e-06  7.2848e-07  0:05:48 1963
    38  6.2711e-03  1.5455e-06  6.9311e-07  0:04:38 1962
    39  5.8563e-03  1.3718e-06  6.5950e-07  0:03:42 1961
    40  5.4727e-03  1.2201e-06  6.2776e-07  0:02:58 1960
    41  5.1453e-03  1.0905e-06  5.9824e-07  0:08:54 1959
    42  4.8507e-03  9.7838e-07  5.7295e-07  0:07:07 1958
    43  4.5705e-03  8.7721e-07  5.5119e-07  0:05:41 1957
    44  4.3266e-03  7.9451e-07  5.3125e-07  0:04:33 1956

  iter  continuity  x-velocity  y-velocity     time/iter
    45  4.0901e-03  7.2610e-07  5.1314e-07  0:03:38 1955
    46  3.8817e-03  6.6808e-07  4.9673e-07  0:09:25 1954
    47  3.7044e-03  6.1927e-07  4.8178e-07  0:07:32 1953
    48  3.5380e-03  5.7449e-07  4.6818e-07  0:06:01 1952
    49  3.3830e-03  5.3228e-07  4.5578e-07  0:04:49 1951
    50  3.2442e-03  4.9411e-07  4.4359e-07  0:03:51 1950
    51  3.1253e-03  4.5939e-07  4.3170e-07  0:03:05 1949
    52  3.0225e-03  4.2915e-07  4.2039e-07  0:08:57 1948
    53  2.9298e-03  4.0191e-07  4.0957e-07  0:07:10 1947
    54  2.8473e-03  3.7733e-07  3.9974e-07  0:05:44 1946
    55  2.7681e-03  3.5460e-07  3.9069e-07  0:04:35 1945

  iter  continuity  x-velocity  y-velocity     time/iter
    56  2.6943e-03  3.3421e-07  3.8252e-07  0:03:40 1944
    57  2.6229e-03  3.1672e-07  3.7516e-07  0:02:56 1943
    58  2.5490e-03  3.0700e-07  3.6596e-07  0:08:49 1942
    59  2.4854e-03  2.8830e-07  3.5949e-07  0:07:03 1941
    60  2.4259e-03  2.7370e-07  3.5296e-07  0:05:38 1940
    61  2.3656e-03  2.6624e-07  3.4521e-07  0:10:58 1939
    62  2.3145e-03  2.5214e-07  3.3984e-07  0:08:46 1938
    63  2.2654e-03  2.4086e-07  3.3411e-07  0:07:01 1937
    64  2.2183e-03  2.3159e-07  3.2841e-07  0:05:36 1936
    65  2.1685e-03  2.2781e-07  3.2157e-07  0:04:29 1935
    66  2.1244e-03  2.1648e-07  3.1689e-07  0:03:35 1934

  iter  continuity  x-velocity  y-velocity     time/iter
    67  2.0818e-03  2.0807e-07  3.1195e-07  0:09:19 1933
    68  2.0375e-03  2.0524e-07  3.0582e-07  0:07:27 1932
    69  1.9993e-03  2.0000e-07  3.0086e-07  0:05:57 1931
    70  1.9677e-03  1.9107e-07  2.9760e-07  0:04:46 1930
    71  1.9339e-03  1.8791e-07  2.9306e-07  0:03:48 1929
    72  1.9045e-03  1.8430e-07  2.8916e-07  0:09:28 1928
    73  1.8791e-03  1.7735e-07  2.8645e-07  0:07:34 1927
    74  1.8507e-03  1.7544e-07  2.8244e-07  0:06:03 1926
    75  1.8271e-03  1.6972e-07  2.7986e-07  0:04:50 1925
    76  1.8005e-03  1.6889e-07  2.7583e-07  0:03:52 1924
    77  1.7779e-03  1.6348e-07  2.7322e-07  0:09:30 1923

  iter  continuity  x-velocity  y-velocity     time/iter
    78  1.7529e-03  1.6314e-07  2.6927e-07  0:07:36 1922
    79  1.7322e-03  1.5807e-07  2.6671e-07  0:06:05 1921
    80  1.7096e-03  1.5803e-07  2.6296e-07  0:04:52 1920
    81  1.6892e-03  1.5332e-07  2.6048e-07  0:03:53 1919
    82  1.6678e-03  1.5337e-07  2.5683e-07  0:09:30 1918
    83  1.6494e-03  1.4905e-07  2.5447e-07  0:07:36 1917
    84  1.6304e-03  1.4922e-07  2.5105e-07  0:06:04 1916
    85  1.6127e-03  1.4517e-07  2.4874e-07  0:04:51 1915
    86  1.5949e-03  1.4537e-07  2.4539e-07  0:03:53 1914
    87  1.5789e-03  1.4150e-07  2.4318e-07  0:09:29 1913
    88  1.5631e-03  1.4174e-07  2.4018e-07  0:07:35 1912

  iter  continuity  x-velocity  y-velocity     time/iter
    89  1.5488e-03  1.3813e-07  2.3832e-07  0:06:04 1911
    90  1.5346e-03  1.3849e-07  2.3550e-07  0:04:51 1910
    91  1.5199e-03  1.3496e-07  2.3366e-07  0:03:53 1909
    92  1.5050e-03  1.3530e-07  2.3086e-07  0:09:28 1908
    93  1.4895e-03  1.3193e-07  2.2919e-07  0:07:34 1907
    94  1.4745e-03  1.3227e-07  2.2670e-07  0:06:03 1906
    95  1.4593e-03  1.2894e-07  2.2511e-07  0:04:50 1905
    96  1.4449e-03  1.2928e-07  2.2267e-07  0:03:52 1904
    97  1.4303e-03  1.2598e-07  2.2116e-07  0:09:26 1903
    98  1.4169e-03  1.2634e-07  2.1890e-07  0:07:33 1902
    99  1.4031e-03  1.2324e-07  2.1747e-07  0:06:02 1901

  iter  continuity  x-velocity  y-velocity     time/iter
   100  1.3909e-03  1.2373e-07  2.1529e-07  0:04:49 1900
   101  1.3777e-03  1.2080e-07  2.1393e-07  0:03:51 1899
   102  1.3662e-03  1.2136e-07  2.1193e-07  0:03:05 1898
   103  1.3531e-03  1.1856e-07  2.1062e-07  0:08:47 1897
   104  1.3426e-03  1.1913e-07  2.0874e-07  0:07:02 1896
   105  1.3300e-03  1.1639e-07  2.0758e-07  0:05:37 1895
   106  1.3201e-03  1.1699e-07  2.0582e-07  0:04:30 1894
   107  1.3081e-03  1.1430e-07  2.0473e-07  0:03:36 1893
   108  1.2988e-03  1.1487e-07  2.0300e-07  0:09:11 1892
   109  1.2875e-03  1.1227e-07  2.0190e-07  0:07:20 1891
   110  1.2791e-03  1.1282e-07  2.0023e-07  0:05:52 1890

  iter  continuity  x-velocity  y-velocity     time/iter
   111  1.2681e-03  1.1030e-07  1.9926e-07  0:10:59 1889
   112  1.2600e-03  1.1083e-07  1.9777e-07  0:08:47 1888
   113  1.2487e-03  1.0836e-07  1.9683e-07  0:07:02 1887
   114  1.2390e-03  1.0706e-07  1.9568e-07  0:05:37 1886
   115  1.2320e-03  1.0839e-07  1.9415e-07  0:04:29 1885
   116  1.2211e-03  1.0579e-07  1.9318e-07  0:03:35 1884
   117  1.2145e-03  1.0662e-07  1.9182e-07  0:09:09 1883
   118  1.2042e-03  1.0426e-07  1.9091e-07  0:07:19 1882
   119  1.1955e-03  1.0299e-07  1.8987e-07  0:05:51 1881
   120  1.1904e-03  1.0428e-07  1.8848e-07  0:04:41 1880
   121  1.1807e-03  1.0193e-07  1.8756e-07  0:03:44 1879

  iter  continuity  x-velocity  y-velocity     time/iter
   122  1.1756e-03  1.0269e-07  1.8626e-07  0:09:15 1878
   123  1.1663e-03  1.0050e-07  1.8541e-07  0:07:24 1877
   124  1.1585e-03  9.9272e-08  1.8444e-07  0:05:55 1876
   125  1.1542e-03  1.0043e-07  1.8318e-07  0:04:44 1875
   126  1.1452e-03  9.8180e-08  1.8239e-07  0:03:47 1874
   127  1.1381e-03  9.7160e-08  1.8150e-07  0:09:16 1873
   128  1.1345e-03  9.8510e-08  1.8029e-07  0:07:25 1872
   129  1.1259e-03  9.6320e-08  1.7953e-07  0:05:55 1871
   130  1.1191e-03  9.5299e-08  1.7870e-07  0:04:44 1870
   131  1.1161e-03  9.6604e-08  1.7759e-07  0:03:47 1869
   132  1.1077e-03  9.4527e-08  1.7690e-07  0:03:02 1868

  iter  continuity  x-velocity  y-velocity     time/iter
   133  1.1010e-03  9.3533e-08  1.7614e-07  0:08:39 1867
   134  1.0981e-03  9.4790e-08  1.7514e-07  0:06:55 1866
   135  1.0900e-03  9.2814e-08  1.7455e-07  0:05:32 1865
   136  1.0836e-03  9.1854e-08  1.7387e-07  0:04:25 1864
   137  1.0811e-03  9.3052e-08  1.7289e-07  0:03:32 1863
   138  1.0731e-03  9.1100e-08  1.7229e-07  0:09:02 1862
   139  1.0669e-03  9.0173e-08  1.7159e-07  0:07:13 1861
   140  1.0615e-03  8.9695e-08  1.7085e-07  0:05:46 1860
   141  1.0595e-03  9.1190e-08  1.6989e-07  0:04:37 1859
   142  1.0514e-03  8.9169e-08  1.6929e-07  0:03:41 1858
   143  1.0451e-03  8.8255e-08  1.6862e-07  0:02:57 1857

  iter  continuity  x-velocity  y-velocity     time/iter
   144  1.0398e-03  8.7764e-08  1.6794e-07  0:08:33 1856
   145  1.0382e-03  8.9230e-08  1.6706e-07  0:06:50 1855
   146  1.0307e-03  8.7333e-08  1.6652e-07  0:05:28 1854
   147  1.0249e-03  8.6438e-08  1.6589e-07  0:04:22 1853
   148  1.0199e-03  8.5934e-08  1.6523e-07  0:03:30 1852
   149  1.0154e-03  8.5621e-08  1.6456e-07  0:08:58 1851
   150  1.0145e-03  8.7151e-08  1.6369e-07  0:07:10 1850
   151  1.0074e-03  8.5292e-08  1.6312e-07  0:05:44 1849
   152  1.0021e-03  8.4408e-08  1.6248e-07  0:04:35 1848
   153  9.9742e-04  8.3893e-08  1.6182e-07  0:03:40 1847
   154  9.9308e-04  8.3572e-08  1.6118e-07  0:09:05 1846

  iter  continuity  x-velocity  y-velocity     time/iter
   155  9.9237e-04  8.5043e-08  1.6036e-07  0:07:16 1845
   156  9.8562e-04  8.3277e-08  1.5983e-07  0:05:48 1844
   157  9.8057e-04  8.2418e-08  1.5926e-07  0:04:39 1843
   158  9.7635e-04  8.1920e-08  1.5870e-07  0:09:51 1842
   159  9.7260e-04  8.1621e-08  1.5814e-07  0:07:53 1841
   160  9.6905e-04  8.1392e-08  1.5758e-07  0:06:18 1840
   161  9.6562e-04  8.1180e-08  1.5703e-07  0:05:02 1839
   162  9.6222e-04  8.0952e-08  1.5648e-07  0:04:02 1838
   163  9.5885e-04  8.0701e-08  1.5596e-07  0:03:13 1837
   164  9.5928e-04  8.2226e-08  1.5529e-07  0:08:42 1836
   165  9.5304e-04  8.0572e-08  1.5488e-07  0:06:57 1835

  iter  continuity  x-velocity  y-velocity     time/iter
   166  9.4803e-04  7.9686e-08  1.5436e-07  0:05:33 1834
   167  9.4336e-04  7.9033e-08  1.5380e-07  0:04:27 1833
   168  9.3919e-04  7.8530e-08  1.5325e-07  0:03:33 1832
   169  9.3525e-04  7.8133e-08  1.5278e-07  0:02:50 1831
   170  9.3145e-04  7.7787e-08  1.5230e-07  0:08:22 1830
   171  9.2795e-04  7.7483e-08  1.5181e-07  0:06:42 1829
   172  9.2447e-04  7.7222e-08  1.5133e-07  0:05:21 1828
   173  9.2105e-04  7.7010e-08  1.5083e-07  0:04:17 1827
   174  9.1770e-04  7.6799e-08  1.5034e-07  0:03:25 1826
   175  9.1443e-04  7.6575e-08  1.4987e-07  0:08:49 1825
   176  9.1128e-04  7.6343e-08  1.4940e-07  0:07:03 1824

  iter  continuity  x-velocity  y-velocity     time/iter
   177  9.0816e-04  7.6100e-08  1.4893e-07  0:05:38 1823
   178  9.0503e-04  7.5840e-08  1.4846e-07  0:04:30 1822
   179  9.0189e-04  7.5570e-08  1.4799e-07  0:03:36 1821
   180  8.9877e-04  7.5286e-08  1.4752e-07  0:02:53 1820
   181  8.9572e-04  7.4991e-08  1.4704e-07  0:08:22 1819
   182  8.9270e-04  7.4688e-08  1.4657e-07  0:06:41 1818
   183  8.8973e-04  7.4379e-08  1.4610e-07  0:05:21 1817
   184  8.8682e-04  7.4067e-08  1.4563e-07  0:04:17 1816
   185  8.8397e-04  7.3756e-08  1.4517e-07  0:03:25 1815
   186  8.8114e-04  7.3444e-08  1.4472e-07  0:02:44 1814
   187  8.7823e-04  7.3136e-08  1.4424e-07  0:08:14 1813

  iter  continuity  x-velocity  y-velocity     time/iter
   188  8.7537e-04  7.2830e-08  1.4376e-07  0:06:35 1812
   189  8.7267e-04  7.2529e-08  1.4328e-07  0:05:16 1811
   190  8.7010e-04  7.2235e-08  1.4286e-07  0:04:12 1810
   191  8.6722e-04  7.1952e-08  1.4242e-07  0:03:22 1809
   192  8.6384e-04  7.1667e-08  1.4190e-07  0:02:41 1808
   193  8.6030e-04  7.1381e-08  1.4133e-07  0:08:10 1807
   194  8.5675e-04  7.1091e-08  1.4073e-07  0:06:32 1806
   195  8.5328e-04  7.0807e-08  1.4013e-07  0:05:14 1805
   196  8.5004e-04  7.0526e-08  1.3956e-07  0:04:11 1804
   197  8.4690e-04  7.0247e-08  1.3902e-07  0:03:20 1803
   198  8.4384e-04  6.9968e-08  1.3851e-07  0:08:41 1802

  iter  continuity  x-velocity  y-velocity     time/iter
   199  8.4088e-04  6.9689e-08  1.3801e-07  0:06:56 1801
   200  8.3808e-04  6.9416e-08  1.3753e-07  0:05:33 1800
   201  8.3532e-04  6.9148e-08  1.3705e-07  0:04:26 1799
   202  8.3246e-04  6.8883e-08  1.3659e-07  0:03:33 1798
   203  8.2965e-04  6.8621e-08  1.3614e-07  0:02:50 1797
   204  8.2691e-04  6.8373e-08  1.3569e-07  0:08:15 1796
   205  8.2420e-04  6.8129e-08  1.3526e-07  0:06:36 1795
   206  8.2154e-04  6.7885e-08  1.3484e-07  0:05:17 1794
   207  8.1891e-04  6.7641e-08  1.3444e-07  0:04:13 1793
   208  8.1635e-04  6.7399e-08  1.3405e-07  0:09:21 1792
   209  8.1380e-04  6.7171e-08  1.3366e-07  0:07:28 1791

  iter  continuity  x-velocity  y-velocity     time/iter
   210  8.1133e-04  6.6947e-08  1.3329e-07  0:05:59 1790
   211  8.0883e-04  6.6734e-08  1.3290e-07  0:04:47 1789
   212  8.0637e-04  6.6527e-08  1.3250e-07  0:03:49 1788
   213  8.0407e-04  6.6326e-08  1.3209e-07  0:03:03 1787
   214  8.0185e-04  6.6128e-08  1.3169e-07  0:08:24 1786
   215  7.9970e-04  6.5938e-08  1.3129e-07  0:06:43 1785
   216  7.9757e-04  6.5762e-08  1.3090e-07  0:05:22 1784
   217  7.9552e-04  6.5577e-08  1.3051e-07  0:04:17 1783
   218  7.9355e-04  6.5415e-08  1.3012e-07  0:03:26 1782
   219  7.9162e-04  6.5254e-08  1.2975e-07  0:02:45 1781
   220  7.8969e-04  6.5084e-08  1.2939e-07  0:08:08 1780

  iter  continuity  x-velocity  y-velocity     time/iter
   221  7.8782e-04  6.4913e-08  1.2903e-07  0:06:30 1779
   222  7.8600e-04  6.4741e-08  1.2869e-07  0:05:12 1778
   223  7.8413e-04  6.4568e-08  1.2835e-07  0:04:09 1777
   224  7.8224e-04  6.4397e-08  1.2802e-07  0:03:19 1776
   225  7.8036e-04  6.4227e-08  1.2768e-07  0:08:34 1775
   226  7.7849e-04  6.4059e-08  1.2734e-07  0:06:51 1774
   227  7.7659e-04  6.3888e-08  1.2700e-07  0:05:29 1773
   228  7.7470e-04  6.3721e-08  1.2666e-07  0:04:23 1772
   229  7.7283e-04  6.3556e-08  1.2631e-07  0:03:30 1771
   230  7.7095e-04  6.3398e-08  1.2597e-07  0:02:48 1770
   231  7.6905e-04  6.3242e-08  1.2563e-07  0:08:08 1769

  iter  continuity  x-velocity  y-velocity     time/iter
   232  7.6713e-04  6.3084e-08  1.2529e-07  0:06:30 1768
   233  7.6516e-04  6.2918e-08  1.2495e-07  0:05:12 1767
   234  7.6318e-04  6.2743e-08  1.2460e-07  0:04:10 1766
   235  7.6120e-04  6.2560e-08  1.2426e-07  0:03:20 1765
   236  7.5920e-04  6.2368e-08  1.2393e-07  0:02:40 1764
   237  7.5721e-04  6.2168e-08  1.2360e-07  0:08:00 1763
   238  7.5521e-04  6.1955e-08  1.2327e-07  0:06:24 1762
   239  7.5322e-04  6.1776e-08  1.2295e-07  0:05:07 1761
   240  7.5111e-04  6.1567e-08  1.2263e-07  0:04:05 1760
   241  7.4916e-04  6.1311e-08  1.2231e-07  0:03:16 1759
   242  7.4720e-04  6.1060e-08  1.2198e-07  0:08:28 1758

  iter  continuity  x-velocity  y-velocity     time/iter
   243  7.4526e-04  6.0821e-08  1.2167e-07  0:06:47 1757
   244  7.4347e-04  6.0603e-08  1.2135e-07  0:05:25 1756
   245  7.4171e-04  6.0429e-08  1.2103e-07  0:04:20 1755
   246  7.4003e-04  6.0307e-08  1.2073e-07  0:03:28 1754
   247  7.3835e-04  6.0199e-08  1.2043e-07  0:02:46 1753
   248  7.3668e-04  6.0087e-08  1.2015e-07  0:08:03 1752
   249  7.3505e-04  5.9971e-08  1.1986e-07  0:06:26 1751
   250  7.3344e-04  5.9849e-08  1.1957e-07  0:05:09 1750
   251  7.3178e-04  5.9718e-08  1.1928e-07  0:04:07 1749
   252  7.3013e-04  5.9583e-08  1.1899e-07  0:03:17 1748
   253  7.2848e-04  5.9439e-08  1.1871e-07  0:02:38 1747

  iter  continuity  x-velocity  y-velocity     time/iter
   254  7.2684e-04  5.9289e-08  1.1842e-07  0:07:55 1746
   255  7.2523e-04  5.9134e-08  1.1813e-07  0:06:20 1745
   256  7.2362e-04  5.8976e-08  1.1785e-07  0:05:04 1744
   257  7.2199e-04  5.8815e-08  1.1756e-07  0:04:03 1743
   258  7.2037e-04  5.8651e-08  1.1727e-07  0:09:03 1742
   259  7.1874e-04  5.8486e-08  1.1699e-07  0:07:14 1741
   260  7.1713e-04  5.8321e-08  1.1670e-07  0:05:47 1740
   261  7.1554e-04  5.8155e-08  1.1641e-07  0:04:37 1739
   262  7.1394e-04  5.8000e-08  1.1613e-07  0:03:42 1738
   263  7.1237e-04  5.7841e-08  1.1584e-07  0:02:57 1737
   264  7.1080e-04  5.7676e-08  1.1556e-07  0:08:09 1736

  iter  continuity  x-velocity  y-velocity     time/iter
   265  7.0922e-04  5.7519e-08  1.1528e-07  0:06:31 1735
   266  7.0766e-04  5.7363e-08  1.1500e-07  0:05:13 1734
   267  7.0612e-04  5.7209e-08  1.1473e-07  0:04:10 1733
   268  7.0461e-04  5.7056e-08  1.1446e-07  0:03:20 1732
   269  7.0311e-04  5.6906e-08  1.1419e-07  0:02:40 1731
   270  7.0162e-04  5.6754e-08  1.1393e-07  0:07:54 1730
   271  7.0013e-04  5.6602e-08  1.1367e-07  0:06:19 1729
   272  6.9865e-04  5.6450e-08  1.1341e-07  0:05:03 1728
   273  6.9717e-04  5.6301e-08  1.1316e-07  0:04:02 1727
   274  6.9570e-04  5.6151e-08  1.1291e-07  0:03:14 1726
   275  6.9424e-04  5.6001e-08  1.1266e-07  0:08:20 1725

  iter  continuity  x-velocity  y-velocity     time/iter
   276  6.9278e-04  5.5856e-08  1.1241e-07  0:06:40 1724
   277  6.9134e-04  5.5714e-08  1.1216e-07  0:05:19 1723
   278  6.8992e-04  5.5570e-08  1.1191e-07  0:04:15 1722
   279  6.8848e-04  5.5425e-08  1.1166e-07  0:03:24 1721
   280  6.8703e-04  5.5278e-08  1.1142e-07  0:02:43 1720
   281  6.8557e-04  5.5137e-08  1.1118e-07  0:07:54 1719
   282  6.8411e-04  5.5002e-08  1.1094e-07  0:06:19 1718
   283  6.8269e-04  5.4871e-08  1.1071e-07  0:05:03 1717
   284  6.8130e-04  5.4755e-08  1.1050e-07  0:04:02 1716
   285  6.8002e-04  5.4644e-08  1.1029e-07  0:03:14 1715
   286  6.7879e-04  5.4541e-08  1.1007e-07  0:02:35 1714

  iter  continuity  x-velocity  y-velocity     time/iter
   287  6.7759e-04  5.4444e-08  1.0985e-07  0:07:47 1713
   288  6.7643e-04  5.4359e-08  1.0963e-07  0:06:13 1712
   289  6.7528e-04  5.4266e-08  1.0941e-07  0:04:58 1711
   290  6.7412e-04  5.4187e-08  1.0919e-07  0:03:58 1710
   291  6.7296e-04  5.4117e-08  1.0897e-07  0:03:11 1709
   292  6.7181e-04  5.4038e-08  1.0875e-07  0:08:14 1708
   293  6.7069e-04  5.3954e-08  1.0854e-07  0:06:35 1707
   294  6.6964e-04  5.3867e-08  1.0832e-07  0:05:16 1706
   295  6.6859e-04  5.3778e-08  1.0810e-07  0:04:12 1705
   296  6.6753e-04  5.3690e-08  1.0788e-07  0:03:22 1704
   297  6.6648e-04  5.3602e-08  1.0765e-07  0:02:41 1703

  iter  continuity  x-velocity  y-velocity     time/iter
   298  6.6544e-04  5.3512e-08  1.0743e-07  0:07:49 1702
   299  6.6438e-04  5.3422e-08  1.0721e-07  0:06:15 1701
   300  6.6332e-04  5.3333e-08  1.0698e-07  0:05:00 1700
   301  6.6229e-04  5.3244e-08  1.0675e-07  0:04:00 1699
   302  6.6128e-04  5.3160e-08  1.0652e-07  0:08:51 1698
   303  6.6027e-04  5.3080e-08  1.0629e-07  0:07:05 1697
   304  6.5924e-04  5.3001e-08  1.0608e-07  0:05:40 1696
   305  6.5819e-04  5.2917e-08  1.0586e-07  0:04:32 1695
   306  6.5712e-04  5.2823e-08  1.0564e-07  0:03:37 1694
   307  6.5603e-04  5.2717e-08  1.0543e-07  0:02:54 1693
   308  6.5490e-04  5.2606e-08  1.0521e-07  0:07:57 1692

  iter  continuity  x-velocity  y-velocity     time/iter
   309  6.5374e-04  5.2482e-08  1.0500e-07  0:06:22 1691
   310  6.5256e-04  5.2347e-08  1.0478e-07  0:05:05 1690
   311  6.5137e-04  5.2211e-08  1.0458e-07  0:04:04 1689
   312  6.5018e-04  5.2115e-08  1.0437e-07  0:03:15 1688
   313  6.4889e-04  5.1939e-08  1.0417e-07  0:08:13 1687
   314  6.4773e-04  5.1748e-08  1.0396e-07  0:06:34 1686
   315  6.4655e-04  5.1562e-08  1.0375e-07  0:05:15 1685
   316  6.4547e-04  5.1391e-08  1.0354e-07  0:04:12 1684
   317  6.4442e-04  5.1245e-08  1.0334e-07  0:03:22 1683
   318  6.4334e-04  5.1150e-08  1.0313e-07  0:02:41 1682
   319  6.4228e-04  5.1094e-08  1.0293e-07  0:07:45 1681

  iter  continuity  x-velocity  y-velocity     time/iter
   320  6.4121e-04  5.1037e-08  1.0272e-07  0:06:12 1680
   321  6.4016e-04  5.0975e-08  1.0252e-07  0:04:57 1679
   322  6.3917e-04  5.0908e-08  1.0232e-07  0:03:58 1678
   323  6.3815e-04  5.0834e-08  1.0211e-07  0:03:10 1677
   324  6.3711e-04  5.0753e-08  1.0191e-07  0:02:32 1676
   325  6.3608e-04  5.0666e-08  1.0171e-07  0:07:36 1675
   326  6.3505e-04  5.0573e-08  1.0151e-07  0:06:05 1674
   327  6.3402e-04  5.0475e-08  1.0131e-07  0:04:52 1673
   328  6.3299e-04  5.0374e-08  1.0111e-07  0:03:53 1672
   329  6.3195e-04  5.0269e-08  1.0091e-07  0:03:07 1671
   330  6.3093e-04  5.0163e-08  1.0072e-07  0:02:29 1670

  iter  continuity  x-velocity  y-velocity     time/iter
   331  6.2991e-04  5.0058e-08  1.0052e-07  0:07:33 1669
   332  6.2890e-04  4.9953e-08  1.0032e-07  0:06:02 1668
   333  6.2790e-04  4.9850e-08  1.0013e-07  0:04:50 1667
   334  6.2689e-04  4.9747e-08  9.9936e-08  0:03:52 1666
   335  6.2589e-04  4.9645e-08  9.9743e-08  0:03:05 1665
   336  6.2490e-04  4.9544e-08  9.9551e-08  0:08:01 1664
   337  6.2393e-04  4.9451e-08  9.9362e-08  0:06:24 1663
   338  6.2297e-04  4.9360e-08  9.9172e-08  0:05:07 1662
   339  6.2202e-04  4.9269e-08  9.8985e-08  0:04:06 1661
   340  6.2108e-04  4.9179e-08  9.8798e-08  0:03:16 1660
   341  6.2015e-04  4.9089e-08  9.8612e-08  0:02:37 1659

  iter  continuity  x-velocity  y-velocity     time/iter
   342  6.1919e-04  4.8998e-08  9.8425e-08  0:07:37 1658
   343  6.1823e-04  4.8905e-08  9.8238e-08  0:06:06 1657
   344  6.1726e-04  4.8811e-08  9.8051e-08  0:04:52 1656
   345  6.1629e-04  4.8721e-08  9.7871e-08  0:03:54 1655
   346  6.1535e-04  4.8629e-08  9.7693e-08  0:03:07 1654
   347  6.1440e-04  4.8535e-08  9.7515e-08  0:02:29 1653
   348  6.1347e-04  4.8444e-08  9.7339e-08  0:07:30 1652
   349  6.1254e-04  4.8357e-08  9.7164e-08  0:06:00 1651
   350  6.1162e-04  4.8268e-08  9.6988e-08  0:04:48 1650
   351  6.1069e-04  4.8177e-08  9.6813e-08  0:03:50 1649
   352  6.0975e-04  4.8082e-08  9.6639e-08  0:08:33 1648

  iter  continuity  x-velocity  y-velocity     time/iter
   353  6.0881e-04  4.7991e-08  9.6466e-08  0:06:50 1647
   354  6.0785e-04  4.7906e-08  9.6296e-08  0:05:28 1646
   355  6.0688e-04  4.7824e-08  9.6126e-08  0:04:22 1645
   356  6.0593e-04  4.7754e-08  9.5957e-08  0:03:30 1644
   357  6.0507e-04  4.7688e-08  9.5787e-08  0:08:16 1643
   358  6.0426e-04  4.7632e-08  9.5620e-08  0:06:37 1642
   359  6.0355e-04  4.7580e-08  9.5451e-08  0:05:17 1641
   360  6.0289e-04  4.7538e-08  9.5281e-08  0:04:14 1640
   361  6.0224e-04  4.7487e-08  9.5124e-08  0:03:23 1639
   362  6.0160e-04  4.7445e-08  9.4979e-08  0:02:42 1638
   363  6.0095e-04  4.7420e-08  9.4839e-08  0:07:37 1637

  iter  continuity  x-velocity  y-velocity     time/iter
   364  6.0030e-04  4.7385e-08  9.4701e-08  0:06:05 1636
   365  5.9966e-04  4.7344e-08  9.4571e-08  0:04:52 1635
   366  5.9910e-04  4.7302e-08  9.4438e-08  0:03:54 1634
   367  5.9853e-04  4.7258e-08  9.4304e-08  0:03:07 1633
   368  5.9794e-04  4.7213e-08  9.4168e-08  0:07:56 1632
   369  5.9736e-04  4.7168e-08  9.4030e-08  0:06:20 1631
   370  5.9677e-04  4.7122e-08  9.3891e-08  0:05:04 1630
   371  5.9617e-04  4.7073e-08  9.3751e-08  0:04:03 1629
   372  5.9557e-04  4.7024e-08  9.3611e-08  0:03:14 1628
   373  5.9496e-04  4.6976e-08  9.3472e-08  0:02:35 1627
   374  5.9436e-04  4.6931e-08  9.3334e-08  0:07:29 1626

  iter  continuity  x-velocity  y-velocity     time/iter
   375  5.9375e-04  4.6890e-08  9.3195e-08  0:05:59 1625
   376  5.9312e-04  4.6850e-08  9.3056e-08  0:04:47 1624
   377  5.9248e-04  4.6808e-08  9.2917e-08  0:03:50 1623
   378  5.9181e-04  4.6755e-08  9.2779e-08  0:03:04 1622
   379  5.9112e-04  4.6691e-08  9.2640e-08  0:02:27 1621
   380  5.9043e-04  4.6620e-08  9.2502e-08  0:07:21 1620
   381  5.8970e-04  4.6537e-08  9.2364e-08  0:05:53 1619
   382  5.8893e-04  4.6444e-08  9.2225e-08  0:04:42 1618
   383  5.8811e-04  4.6337e-08  9.2087e-08  0:03:46 1617
   384  5.8728e-04  4.6268e-08  9.1950e-08  0:03:00 1616
   385  5.8632e-04  4.6164e-08  9.1814e-08  0:02:24 1615

  iter  continuity  x-velocity  y-velocity     time/iter
   386  5.8548e-04  4.6012e-08  9.1674e-08  0:07:18 1614
   387  5.8460e-04  4.5858e-08  9.1528e-08  0:05:50 1613
   388  5.8371e-04  4.5713e-08  9.1382e-08  0:04:40 1612
   389  5.8291e-04  4.5585e-08  9.1235e-08  0:03:44 1611
   390  5.8205e-04  4.5500e-08  9.1086e-08  0:02:59 1610
   391  5.8119e-04  4.5463e-08  9.0936e-08  0:07:45 1609
   392  5.8031e-04  4.5438e-08  9.0784e-08  0:06:12 1608
   393  5.7942e-04  4.5407e-08  9.0633e-08  0:04:57 1607
   394  5.7858e-04  4.5368e-08  9.0481e-08  0:03:58 1606
   395  5.7772e-04  4.5322e-08  9.0321e-08  0:03:10 1605
   396  5.7681e-04  4.5266e-08  9.0158e-08  0:02:32 1604

  iter  continuity  x-velocity  y-velocity     time/iter
   397  5.7587e-04  4.5205e-08  8.9993e-08  0:07:22 1603
   398  5.7492e-04  4.5135e-08  8.9827e-08  0:05:53 1602
   399  5.7396e-04  4.5058e-08  8.9659e-08  0:04:43 1601
   400  5.7298e-04  4.4977e-08  8.9490e-08  0:03:46 1600
   401  5.7198e-04  4.4891e-08  8.9322e-08  0:08:20 1599
   402  5.7096e-04  4.4802e-08  8.9154e-08  0:06:40 1598
   403  5.6995e-04  4.4713e-08  8.8981e-08  0:05:20 1597
   404  5.6894e-04  4.4622e-08  8.8801e-08  0:04:16 1596
   405  5.6795e-04  4.4531e-08  8.8623e-08  0:03:24 1595
   406  5.6697e-04  4.4440e-08  8.8446e-08  0:02:43 1594
   407  5.6601e-04  4.4350e-08  8.8271e-08  0:07:29 1593

  iter  continuity  x-velocity  y-velocity     time/iter
   408  5.6506e-04  4.4259e-08  8.8098e-08  0:05:59 1592
   409  5.6413e-04  4.4173e-08  8.7929e-08  0:04:47 1591
   410  5.6321e-04  4.4091e-08  8.7760e-08  0:03:50 1590
   411  5.6231e-04  4.4010e-08  8.7591e-08  0:03:04 1589
   412  5.6141e-04  4.3928e-08  8.7425e-08  0:07:44 1588
   413  5.6052e-04  4.3848e-08  8.7260e-08  0:06:11 1587
   414  5.5963e-04  4.3767e-08  8.7097e-08  0:04:57 1586
   415  5.5877e-04  4.3684e-08  8.6937e-08  0:03:57 1585
   416  5.5794e-04  4.3599e-08  8.6778e-08  0:03:10 1584
   417  5.5711e-04  4.3518e-08  8.6622e-08  0:02:32 1583
   418  5.5631e-04  4.3436e-08  8.6472e-08  0:07:18 1582

  iter  continuity  x-velocity  y-velocity     time/iter
   419  5.5552e-04  4.3352e-08  8.6328e-08  0:05:50 1581
   420  5.5475e-04  4.3269e-08  8.6186e-08  0:04:40 1580
   421  5.5405e-04  4.3194e-08  8.6045e-08  0:03:44 1579
   422  5.5337e-04  4.3117e-08  8.5906e-08  0:02:59 1578
   423  5.5271e-04  4.3039e-08  8.5769e-08  0:02:23 1577
   424  5.5206e-04  4.2958e-08  8.5634e-08  0:07:09 1576
   425  5.5140e-04  4.2876e-08  8.5501e-08  0:05:43 1575
   426  5.5077e-04  4.2804e-08  8.5370e-08  0:04:35 1574
   427  5.5013e-04  4.2735e-08  8.5247e-08  0:03:39 1573
   428  5.4948e-04  4.2674e-08  8.5132e-08  0:02:55 1572
   429  5.4887e-04  4.2623e-08  8.5013e-08  0:02:20 1571

  iter  continuity  x-velocity  y-velocity     time/iter
   430  5.4830e-04  4.2581e-08  8.4894e-08  0:07:06 1570
   431  5.4777e-04  4.2543e-08  8.4775e-08  0:05:41 1569
   432  5.4727e-04  4.2513e-08  8.4657e-08  0:04:32 1568
   433  5.4678e-04  4.2475e-08  8.4542e-08  0:03:38 1567
   434  5.4626e-04  4.2439e-08  8.4430e-08  0:02:54 1566
   435  5.4572e-04  4.2424e-08  8.4317e-08  0:02:19 1565
   436  5.4515e-04  4.2401e-08  8.4196e-08  0:07:04 1564
   437  5.4457e-04  4.2368e-08  8.4084e-08  0:05:39 1563
   438  5.4406e-04  4.2334e-08  8.3966e-08  0:04:31 1562
   439  5.4356e-04  4.2298e-08  8.3847e-08  0:03:37 1561
   440  5.4305e-04  4.2259e-08  8.3726e-08  0:02:53 1560

  iter  continuity  x-velocity  y-velocity     time/iter
   441  5.4253e-04  4.2220e-08  8.3604e-08  0:07:30 1559
   442  5.4200e-04  4.2181e-08  8.3480e-08  0:06:00 1558
   443  5.4147e-04  4.2139e-08  8.3356e-08  0:04:48 1557
   444  5.4094e-04  4.2095e-08  8.3232e-08  0:03:50 1556
   445  5.4039e-04  4.2053e-08  8.3107e-08  0:03:04 1555
   446  5.3985e-04  4.2012e-08  8.2982e-08  0:02:27 1554
   447  5.3931e-04  4.1977e-08  8.2857e-08  0:07:08 1553
   448  5.3878e-04  4.1943e-08  8.2735e-08  0:05:42 1552
   449  5.3824e-04  4.1907e-08  8.2617e-08  0:04:34 1551
   450  5.3767e-04  4.1865e-08  8.2501e-08  0:03:39 1550
   451  5.3705e-04  4.1812e-08  8.2384e-08  0:08:05 1549

  iter  continuity  x-velocity  y-velocity     time/iter
   452  5.3640e-04  4.1756e-08  8.2265e-08  0:06:28 1548
   453  5.3570e-04  4.1687e-08  8.2144e-08  0:05:10 1547
   454  5.3497e-04  4.1605e-08  8.2020e-08  0:04:08 1546
   455  5.3420e-04  4.1510e-08  8.1898e-08  0:03:18 1545
   456  5.3341e-04  4.1429e-08  8.1776e-08  0:02:38 1544
   457  5.3257e-04  4.1365e-08  8.1654e-08  0:07:15 1543
   458  5.3169e-04  4.1225e-08  8.1533e-08  0:05:48 1542
   459  5.3086e-04  4.1077e-08  8.1404e-08  0:04:38 1541
   460  5.3000e-04  4.0933e-08  8.1275e-08  0:03:42 1540
   461  5.2925e-04  4.0804e-08  8.1151e-08  0:02:58 1539
   462  5.2846e-04  4.0707e-08  8.1026e-08  0:02:22 1538

  iter  continuity  x-velocity  y-velocity     time/iter
   463  5.2765e-04  4.0659e-08  8.0901e-08  0:07:01 1537
   464  5.2684e-04  4.0642e-08  8.0777e-08  0:05:37 1536
   465  5.2602e-04  4.0625e-08  8.0657e-08  0:04:29 1535
   466  5.2525e-04  4.0604e-08  8.0541e-08  0:03:35 1534
   467  5.2455e-04  4.0579e-08  8.0433e-08  0:02:52 1533
   468  5.2383e-04  4.0545e-08  8.0325e-08  0:07:24 1532
   469  5.2311e-04  4.0507e-08  8.0222e-08  0:05:55 1531
   470  5.2241e-04  4.0462e-08  8.0126e-08  0:04:44 1530
   471  5.2172e-04  4.0411e-08  8.0028e-08  0:03:47 1529
   472  5.2107e-04  4.0354e-08  7.9929e-08  0:03:01 1528
   473  5.2044e-04  4.0293e-08  7.9829e-08  0:02:25 1527

  iter  continuity  x-velocity  y-velocity     time/iter
   474  5.1984e-04  4.0228e-08  7.9728e-08  0:07:01 1526
   475  5.1925e-04  4.0162e-08  7.9625e-08  0:05:37 1525
   476  5.1868e-04  4.0096e-08  7.9520e-08  0:04:29 1524
   477  5.1811e-04  4.0029e-08  7.9413e-08  0:03:35 1523
   478  5.1755e-04  3.9962e-08  7.9308e-08  0:02:52 1522
   479  5.1699e-04  3.9896e-08  7.9202e-08  0:02:18 1521
   480  5.1644e-04  3.9830e-08  7.9095e-08  0:06:54 1520
   481  5.1590e-04  3.9767e-08  7.8987e-08  0:05:31 1519
   482  5.1535e-04  3.9711e-08  7.8879e-08  0:04:25 1518
   483  5.1482e-04  3.9655e-08  7.8769e-08  0:03:32 1517
   484  5.1430e-04  3.9598e-08  7.8658e-08  0:02:49 1516

  iter  continuity  x-velocity  y-velocity     time/iter
   485  5.1376e-04  3.9541e-08  7.8548e-08  0:07:18 1515
   486  5.1321e-04  3.9483e-08  7.8438e-08  0:05:50 1514
   487  5.1266e-04  3.9423e-08  7.8328e-08  0:04:40 1513
   488  5.1210e-04  3.9360e-08  7.8220e-08  0:03:44 1512
   489  5.1155e-04  3.9297e-08  7.8113e-08  0:02:59 1511
   490  5.1098e-04  3.9235e-08  7.8006e-08  0:02:23 1510
   491  5.1041e-04  3.9171e-08  7.7899e-08  0:06:56 1509
   492  5.0984e-04  3.9105e-08  7.7792e-08  0:05:33 1508
   493  5.0927e-04  3.9047e-08  7.7686e-08  0:04:26 1507
   494  5.0872e-04  3.8987e-08  7.7580e-08  0:03:33 1506
   495  5.0818e-04  3.8926e-08  7.7474e-08  0:07:51 1505

  iter  continuity  x-velocity  y-velocity     time/iter
   496  5.0764e-04  3.8863e-08  7.7370e-08  0:06:17 1504
   497  5.0710e-04  3.8795e-08  7.7266e-08  0:05:01 1503
   498  5.0657e-04  3.8737e-08  7.7164e-08  0:04:01 1502
   499  5.0602e-04  3.8681e-08  7.7064e-08  0:03:12 1501
   500  5.0547e-04  3.8631e-08  7.6964e-08  0:02:34 1500
   501  5.0495e-04  3.8592e-08  7.6864e-08  0:07:03 1499
   502  5.0452e-04  3.8560e-08  7.6764e-08  0:05:38 1498
   503  5.0411e-04  3.8535e-08  7.6666e-08  0:04:30 1497
   504  5.0375e-04  3.8517e-08  7.6569e-08  0:03:36 1496
   505  5.0341e-04  3.8496e-08  7.6474e-08  0:02:53 1495
   506  5.0305e-04  3.8470e-08  7.6382e-08  0:02:18 1494

  iter  continuity  x-velocity  y-velocity     time/iter
   507  5.0267e-04  3.8464e-08  7.6292e-08  0:06:49 1493
   508  5.0227e-04  3.8458e-08  7.6196e-08  0:05:27 1492
   509  5.0186e-04  3.8441e-08  7.6110e-08  0:04:21 1491
   510  5.0150e-04  3.8421e-08  7.6018e-08  0:03:29 1490
   511  5.0117e-04  3.8400e-08  7.5928e-08  0:02:47 1489
   512  5.0082e-04  3.8377e-08  7.5836e-08  0:02:14 1488
   513  5.0046e-04  3.8352e-08  7.5742e-08  0:06:44 1487
   514  5.0010e-04  3.8326e-08  7.5649e-08  0:05:23 1486
   515  4.9973e-04  3.8298e-08  7.5555e-08  0:04:18 1485
   516  4.9936e-04  3.8267e-08  7.5461e-08  0:03:27 1484
   517  4.9899e-04  3.8238e-08  7.5368e-08  0:02:45 1483

  iter  continuity  x-velocity  y-velocity     time/iter
   518  4.9864e-04  3.8208e-08  7.5274e-08  0:07:08 1482
   519  4.9828e-04  3.8184e-08  7.5180e-08  0:05:42 1481
   520  4.9792e-04  3.8162e-08  7.5086e-08  0:04:34 1480
   521  4.9755e-04  3.8140e-08  7.4992e-08  0:03:39 1479
   522  4.9716e-04  3.8112e-08  7.4898e-08  0:02:55 1478
   523  4.9674e-04  3.8076e-08  7.4805e-08  0:02:20 1477
   524  4.9631e-04  3.8028e-08  7.4713e-08  0:06:47 1476
   525  4.9584e-04  3.7974e-08  7.4620e-08  0:05:25 1475
   526  4.9535e-04  3.7908e-08  7.4526e-08  0:04:20 1474
   527  4.9486e-04  3.7830e-08  7.4433e-08  0:03:28 1473
   528  4.9436e-04  3.7743e-08  7.4342e-08  0:02:46 1472

  iter  continuity  x-velocity  y-velocity     time/iter
   529  4.9386e-04  3.7702e-08  7.4253e-08  0:02:13 1471
   530  4.9323e-04  3.7596e-08  7.4164e-08  0:06:40 1470
   531  4.9275e-04  3.7461e-08  7.4070e-08  0:05:20 1469
   532  4.9224e-04  3.7326e-08  7.3973e-08  0:04:16 1468
   533  4.9179e-04  3.7204e-08  7.3879e-08  0:03:25 1467
   534  4.9141e-04  3.7102e-08  7.3786e-08  0:02:44 1466
   535  4.9099e-04  3.7050e-08  7.3693e-08  0:02:11 1465
   536  4.9058e-04  3.7041e-08  7.3601e-08  0:06:37 1464
   537  4.9018e-04  3.7035e-08  7.3512e-08  0:05:18 1463
   538  4.8982e-04  3.7023e-08  7.3425e-08  0:04:14 1462
   539  4.8952e-04  3.7005e-08  7.3342e-08  0:03:23 1461

  iter  continuity  x-velocity  y-velocity     time/iter
   540  4.8922e-04  3.6981e-08  7.3255e-08  0:02:42 1460
   541  4.8889e-04  3.6951e-08  7.3169e-08  0:07:02 1459
   542  4.8857e-04  3.6913e-08  7.3089e-08  0:05:37 1458
   543  4.8827e-04  3.6869e-08  7.3009e-08  0:04:29 1457
   544  4.8796e-04  3.6819e-08  7.2932e-08  0:03:35 1456
   545  4.8765e-04  3.6765e-08  7.2856e-08  0:07:43 1455
   546  4.8734e-04  3.6709e-08  7.2780e-08  0:06:10 1454
   547  4.8704e-04  3.6653e-08  7.2707e-08  0:04:56 1453
   548  4.8674e-04  3.6596e-08  7.2634e-08  0:03:57 1452
   549  4.8646e-04  3.6541e-08  7.2562e-08  0:03:09 1451
   550  4.8618e-04  3.6487e-08  7.2491e-08  0:02:31 1450

  iter  continuity  x-velocity  y-velocity     time/iter
   551  4.8592e-04  3.6435e-08  7.2422e-08  0:06:51 1449
   552  4.8565e-04  3.6383e-08  7.2355e-08  0:05:28 1448
   553  4.8541e-04  3.6332e-08  7.2289e-08  0:04:22 1447
   554  4.8517e-04  3.6290e-08  7.2225e-08  0:03:30 1446
   555  4.8495e-04  3.6250e-08  7.2160e-08  0:02:48 1445
   556  4.8458e-04  3.6209e-08  7.2076e-08  0:07:03 1444
   557  4.8367e-04  3.6163e-08  7.1928e-08  0:05:38 1443
   558  4.8270e-04  3.6105e-08  7.1755e-08  0:04:30 1442
   559  4.8183e-04  3.6039e-08  7.1577e-08  0:03:36 1441
   560  4.8109e-04  3.5963e-08  7.1402e-08  0:02:53 1440
   561  4.8044e-04  3.5883e-08  7.1235e-08  0:02:18 1439

  iter  continuity  x-velocity  y-velocity     time/iter
   562  4.7989e-04  3.5808e-08  7.1078e-08  0:06:38 1438
   563  4.7935e-04  3.5732e-08  7.0929e-08  0:05:18 1437
   564  4.7880e-04  3.5654e-08  7.0788e-08  0:04:14 1436
   565  4.7822e-04  3.5583e-08  7.0662e-08  0:03:23 1435
   566  4.7766e-04  3.5516e-08  7.0543e-08  0:02:43 1434
   567  4.7712e-04  3.5449e-08  7.0429e-08  0:02:10 1433
   568  4.7657e-04  3.5387e-08  7.0331e-08  0:06:30 1432
   569  4.7601e-04  3.5322e-08  7.0239e-08  0:05:12 1431
   570  4.7543e-04  3.5265e-08  7.0152e-08  0:04:09 1430
   571  4.7487e-04  3.5215e-08  7.0067e-08  0:03:19 1429
   572  4.7431e-04  3.5167e-08  6.9982e-08  0:02:39 1428

  iter  continuity  x-velocity  y-velocity     time/iter
   573  4.7375e-04  3.5131e-08  6.9896e-08  0:06:53 1427
   574  4.7327e-04  3.5100e-08  6.9810e-08  0:05:30 1426
   575  4.7281e-04  3.5078e-08  6.9724e-08  0:04:24 1425
   576  4.7240e-04  3.5063e-08  6.9638e-08  0:03:31 1424
   577  4.7201e-04  3.5056e-08  6.9555e-08  0:02:49 1423
   578  4.7157e-04  3.5027e-08  6.9474e-08  0:02:15 1422
   579  4.7110e-04  3.5021e-08  6.9394e-08  0:06:32 1421
   580  4.7059e-04  3.5022e-08  6.9311e-08  0:05:13 1420
   581  4.7006e-04  3.5013e-08  6.9234e-08  0:04:11 1419
   582  4.6955e-04  3.5000e-08  6.9158e-08  0:03:20 1418
   583  4.6911e-04  3.4985e-08  6.9074e-08  0:02:40 1417

  iter  continuity  x-velocity  y-velocity     time/iter
   584  4.6866e-04  3.4969e-08  6.8987e-08  0:02:08 1416
   585  4.6819e-04  3.4950e-08  6.8904e-08  0:06:25 1415
   586  4.6772e-04  3.4931e-08  6.8824e-08  0:05:08 1414
   587  4.6726e-04  3.4910e-08  6.8741e-08  0:04:06 1413
   588  4.6683e-04  3.4887e-08  6.8658e-08  0:03:17 1412
   589  4.6638e-04  3.4864e-08  6.8573e-08  0:02:37 1411
   590  4.6596e-04  3.4840e-08  6.8486e-08  0:06:48 1410
   591  4.6555e-04  3.4821e-08  6.8397e-08  0:05:26 1409
   592  4.6515e-04  3.4805e-08  6.8308e-08  0:04:21 1408
   593  4.6475e-04  3.4789e-08  6.8219e-08  0:03:28 1407
   594  4.6434e-04  3.4771e-08  6.8131e-08  0:07:28 1406

  iter  continuity  x-velocity  y-velocity     time/iter
   595  4.6390e-04  3.4744e-08  6.8042e-08  0:05:58 1405
   596  4.6344e-04  3.4705e-08  6.7951e-08  0:04:46 1404
   597  4.6297e-04  3.4660e-08  6.7860e-08  0:03:49 1403
   598  4.6246e-04  3.4604e-08  6.7769e-08  0:03:03 1402
   599  4.6194e-04  3.4534e-08  6.7677e-08  0:02:26 1401
   600  4.6140e-04  3.4451e-08  6.7587e-08  0:06:37 1400
   601  4.6085e-04  3.4402e-08  6.7501e-08  0:05:17 1399
   602  4.6019e-04  3.4328e-08  6.7418e-08  0:04:14 1398
   603  4.5965e-04  3.4198e-08  6.7332e-08  0:03:23 1397
   604  4.5913e-04  3.4067e-08  6.7243e-08  0:02:42 1396
   605  4.5859e-04  3.3943e-08  6.7156e-08  0:06:49 1395

  iter  continuity  x-velocity  y-velocity     time/iter
   606  4.5819e-04  3.3837e-08  6.7071e-08  0:05:27 1394
   607  4.5774e-04  3.3772e-08  6.6984e-08  0:04:21 1393
   608  4.5729e-04  3.3758e-08  6.6899e-08  0:03:29 1392
   609  4.5687e-04  3.3759e-08  6.6814e-08  0:02:47 1391
   610  4.5645e-04  3.3756e-08  6.6733e-08  0:02:13 1390
   611  4.5611e-04  3.3749e-08  6.6653e-08  0:06:24 1389
   612  4.5578e-04  3.3735e-08  6.6570e-08  0:05:07 1388
   613  4.5542e-04  3.3715e-08  6.6489e-08  0:04:06 1387
   614  4.5506e-04  3.3690e-08  6.6409e-08  0:03:16 1386
   615  4.5471e-04  3.3656e-08  6.6332e-08  0:02:37 1385
   616  4.5437e-04  3.3617e-08  6.6257e-08  0:02:06 1384

  iter  continuity  x-velocity  y-velocity     time/iter
   617  4.5402e-04  3.3573e-08  6.6182e-08  0:06:17 1383
   618  4.5367e-04  3.3525e-08  6.6107e-08  0:05:01 1382
   619  4.5333e-04  3.3476e-08  6.6034e-08  0:04:01 1381
   620  4.5299e-04  3.3425e-08  6.5961e-08  0:03:13 1380
   621  4.5267e-04  3.3374e-08  6.5888e-08  0:02:34 1379
   622  4.5235e-04  3.3323e-08  6.5814e-08  0:06:39 1378
   623  4.5204e-04  3.3272e-08  6.5743e-08  0:05:19 1377
   624  4.5173e-04  3.3221e-08  6.5671e-08  0:04:15 1376
   625  4.5142e-04  3.3170e-08  6.5599e-08  0:03:24 1375
   626  4.5112e-04  3.3126e-08  6.5529e-08  0:02:43 1374
   627  4.5082e-04  3.3084e-08  6.5456e-08  0:02:10 1373

  iter  continuity  x-velocity  y-velocity     time/iter
   628  4.5052e-04  3.3041e-08  6.5383e-08  0:06:18 1372
   629  4.5022e-04  3.2997e-08  6.5309e-08  0:05:03 1371
   630  4.4989e-04  3.2954e-08  6.5233e-08  0:04:02 1370
   631  4.4953e-04  3.2907e-08  6.5157e-08  0:03:13 1369
   632  4.4916e-04  3.2857e-08  6.5079e-08  0:02:35 1368
   633  4.4876e-04  3.2804e-08  6.5000e-08  0:06:37 1367
   634  4.4832e-04  3.2753e-08  6.4918e-08  0:05:17 1366
   635  4.4787e-04  3.2701e-08  6.4835e-08  0:04:14 1365
   636  4.4739e-04  3.2645e-08  6.4750e-08  0:03:23 1364
   637  4.4689e-04  3.2591e-08  6.4664e-08  0:02:42 1363
   638  4.4636e-04  3.2542e-08  6.4576e-08  0:02:10 1362

  iter  continuity  x-velocity  y-velocity     time/iter
   639  4.4580e-04  3.2491e-08  6.4485e-08  0:06:16 1361
   640  4.4521e-04  3.2439e-08  6.4393e-08  0:05:00 1360
   641  4.4458e-04  3.2383e-08  6.4299e-08  0:04:00 1359
   642  4.4393e-04  3.2328e-08  6.4204e-08  0:07:44 1358
   643  4.4324e-04  3.2280e-08  6.4111e-08  0:06:11 1357
   644  4.4254e-04  3.2240e-08  6.4019e-08  0:04:56 1356
   645  4.4182e-04  3.2213e-08  6.3932e-08  0:03:57 1355
   646  4.4115e-04  3.2192e-08  6.3859e-08  0:03:09 1354
   647  4.4052e-04  3.2181e-08  6.3808e-08  0:02:31 1353
   648  4.3993e-04  3.2174e-08  6.3760e-08  0:06:31 1352
   649  4.3938e-04  3.2178e-08  6.3711e-08  0:05:13 1351

  iter  continuity  x-velocity  y-velocity     time/iter
   650  4.3888e-04  3.2160e-08  6.3664e-08  0:04:10 1350
   651  4.3842e-04  3.2158e-08  6.3619e-08  0:03:20 1349
   652  4.3797e-04  3.2168e-08  6.3567e-08  0:02:40 1348
   653  4.3752e-04  3.2170e-08  6.3513e-08  0:02:08 1347
   654  4.3705e-04  3.2163e-08  6.3460e-08  0:06:11 1346
   655  4.3666e-04  3.2155e-08  6.3401e-08  0:04:57 1345
   656  4.3627e-04  3.2143e-08  6.3337e-08  0:03:57 1344
   657  4.3589e-04  3.2129e-08  6.3267e-08  0:03:10 1343
   658  4.3550e-04  3.2114e-08  6.3194e-08  0:02:32 1342
   659  4.3512e-04  3.2097e-08  6.3118e-08  0:06:29 1341
   660  4.3473e-04  3.2077e-08  6.3039e-08  0:05:11 1340

  iter  continuity  x-velocity  y-velocity     time/iter
   661  4.3433e-04  3.2055e-08  6.2959e-08  0:04:09 1339
   662  4.3394e-04  3.2033e-08  6.2875e-08  0:03:19 1338
   663  4.3354e-04  3.2011e-08  6.2788e-08  0:02:39 1337
   664  4.3313e-04  3.1994e-08  6.2699e-08  0:02:07 1336
   665  4.3272e-04  3.1977e-08  6.2609e-08  0:06:09 1335
   666  4.3227e-04  3.1959e-08  6.2523e-08  0:04:55 1334
   667  4.3179e-04  3.1933e-08  6.2433e-08  0:03:56 1333
   668  4.3127e-04  3.1897e-08  6.2340e-08  0:03:08 1332
   669  4.3072e-04  3.1853e-08  6.2244e-08  0:02:31 1331
   670  4.3016e-04  3.1799e-08  6.2145e-08  0:02:00 1330
   671  4.2958e-04  3.1732e-08  6.2047e-08  0:06:02 1329

  iter  continuity  x-velocity  y-velocity     time/iter
   672  4.2898e-04  3.1656e-08  6.1949e-08  0:04:49 1328
   673  4.2840e-04  3.1592e-08  6.1851e-08  0:03:51 1327
   674  4.2785e-04  3.1547e-08  6.1756e-08  0:03:05 1326
   675  4.2726e-04  3.1426e-08  6.1682e-08  0:02:28 1325
   676  4.2681e-04  3.1298e-08  6.1617e-08  0:06:23 1324
   677  4.2633e-04  3.1179e-08  6.1556e-08  0:05:06 1323
   678  4.2599e-04  3.1080e-08  6.1500e-08  0:04:05 1322
   679  4.2564e-04  3.1013e-08  6.1441e-08  0:03:16 1321
   680  4.2532e-04  3.0997e-08  6.1381e-08  0:02:36 1320
   681  4.2509e-04  3.1013e-08  6.1323e-08  0:02:05 1319
   682  4.2494e-04  3.1025e-08  6.1279e-08  0:06:04 1318

  iter  continuity  x-velocity  y-velocity     time/iter
   683  4.2489e-04  3.1034e-08  6.1238e-08  0:04:51 1317
   684  4.2492e-04  3.1037e-08  6.1195e-08  0:03:52 1316
   685  4.2496e-04  3.1033e-08  6.1156e-08  0:03:06 1315
   686  4.2502e-04  3.1024e-08  6.1117e-08  0:02:28 1314
   687  4.2512e-04  3.1006e-08  6.1079e-08  0:06:21 1313
   688  4.2526e-04  3.0983e-08  6.1038e-08  0:05:05 1312
   689  4.2530e-04  3.0954e-08  6.0987e-08  0:04:04 1311
   690  4.2528e-04  3.0916e-08  6.0928e-08  0:03:15 1310
   691  4.2523e-04  3.0872e-08  6.0862e-08  0:02:36 1309
   692  4.2517e-04  3.0825e-08  6.0791e-08  0:06:26 1308
   693  4.2509e-04  3.0776e-08  6.0718e-08  0:05:09 1307

  iter  continuity  x-velocity  y-velocity     time/iter
   694  4.2499e-04  3.0725e-08  6.0640e-08  0:04:07 1306
   695  4.2487e-04  3.0672e-08  6.0561e-08  0:03:17 1305
   696  4.2472e-04  3.0618e-08  6.0481e-08  0:02:38 1304
   697  4.2455e-04  3.0564e-08  6.0425e-08  0:06:27 1303
   698  4.2438e-04  3.0512e-08  6.0370e-08  0:05:09 1302
   699  4.2417e-04  3.0465e-08  6.0315e-08  0:04:07 1301
   700  4.2389e-04  3.0417e-08  6.0254e-08  0:03:17 1300
   701  4.2356e-04  3.0368e-08  6.0189e-08  0:02:38 1299
   702  4.2316e-04  3.0319e-08  6.0119e-08  0:02:06 1298
   703  4.2268e-04  3.0268e-08  6.0045e-08  0:06:00 1297
   704  4.2213e-04  3.0211e-08  5.9963e-08  0:04:48 1296

  iter  continuity  x-velocity  y-velocity     time/iter
   705  4.2150e-04  3.0149e-08  5.9875e-08  0:03:50 1295
   706  4.2078e-04  3.0091e-08  5.9782e-08  0:03:04 1294
   707  4.1996e-04  3.0034e-08  5.9689e-08  0:02:27 1293
   708  4.1907e-04  2.9975e-08  5.9594e-08  0:01:58 1292
   709  4.1816e-04  2.9922e-08  5.9495e-08  0:05:52 1291
   710  4.1720e-04  2.9879e-08  5.9394e-08  0:04:42 1290
   711  4.1621e-04  2.9844e-08  5.9289e-08  0:03:45 1289
   712  4.1518e-04  2.9822e-08  5.9241e-08  0:03:00 1288
   713  4.1391e-04  2.9794e-08  5.9206e-08  0:02:24 1287
   714  4.1259e-04  2.9761e-08  5.9180e-08  0:01:55 1286
   715  4.1133e-04  2.9735e-08  5.9152e-08  0:05:49 1285

  iter  continuity  x-velocity  y-velocity     time/iter
   716  4.1029e-04  2.9706e-08  5.9116e-08  0:04:39 1284
   717  4.0953e-04  2.9677e-08  5.9074e-08  0:03:43 1283
   718  4.0913e-04  2.9656e-08  5.9026e-08  0:02:58 1282
   719  4.0884e-04  2.9642e-08  5.8971e-08  0:02:22 1281
   720  4.0857e-04  2.9634e-08  5.8912e-08  0:06:10 1280
   721  4.0835e-04  2.9633e-08  5.8849e-08  0:04:56 1279
   722  4.0811e-04  2.9621e-08  5.8783e-08  0:03:56 1278
   723  4.0779e-04  2.9611e-08  5.8717e-08  0:03:09 1277
   724  4.0742e-04  2.9618e-08  5.8647e-08  0:02:31 1276
   725  4.0700e-04  2.9622e-08  5.8571e-08  0:02:01 1275
   726  4.0655e-04  2.9614e-08  5.8506e-08  0:05:51 1274

  iter  continuity  x-velocity  y-velocity     time/iter
   727  4.0613e-04  2.9605e-08  5.8434e-08  0:04:41 1273
   728  4.0571e-04  2.9594e-08  5.8359e-08  0:03:44 1272
   729  4.0524e-04  2.9579e-08  5.8279e-08  0:02:59 1271
   730  4.0473e-04  2.9561e-08  5.8195e-08  0:02:23 1270
   731  4.0421e-04  2.9542e-08  5.8109e-08  0:01:55 1269
   732  4.0368e-04  2.9519e-08  5.8019e-08  0:05:45 1268
   733  4.0313e-04  2.9494e-08  5.7929e-08  0:04:36 1267
   734  4.0259e-04  2.9471e-08  5.7837e-08  0:03:41 1266
   735  4.0206e-04  2.9446e-08  5.7743e-08  0:02:56 1265
   736  4.0157e-04  2.9428e-08  5.7648e-08  0:06:34 1264
   737  4.0108e-04  2.9409e-08  5.7551e-08  0:05:15 1263

  iter  continuity  x-velocity  y-velocity     time/iter
   738  4.0057e-04  2.9391e-08  5.7454e-08  0:04:12 1262
   739  4.0003e-04  2.9368e-08  5.7362e-08  0:03:21 1261
   740  3.9945e-04  2.9340e-08  5.7280e-08  0:02:41 1260
   741  3.9890e-04  2.9304e-08  5.7202e-08  0:02:09 1259
   742  3.9835e-04  2.9259e-08  5.7124e-08  0:05:54 1258
   743  3.9786e-04  2.9204e-08  5.7046e-08  0:04:43 1257
   744  3.9748e-04  2.9138e-08  5.6982e-08  0:03:46 1256
   745  3.9710e-04  2.9067e-08  5.6940e-08  0:03:01 1255
   746  3.9680e-04  2.9047e-08  5.6899e-08  0:02:25 1254
   747  3.9641e-04  2.8964e-08  5.6861e-08  0:06:06 1253
   748  3.9619e-04  2.8855e-08  5.6816e-08  0:04:53 1252

  iter  continuity  x-velocity  y-velocity     time/iter
   749  3.9599e-04  2.8747e-08  5.6777e-08  0:03:54 1251
   750  3.9591e-04  2.8652e-08  5.6749e-08  0:03:07 1250
   751  3.9597e-04  2.8579e-08  5.6721e-08  0:02:30 1249
   752  3.9602e-04  2.8554e-08  5.6694e-08  0:02:00 1248
   753  3.9612e-04  2.8574e-08  5.6667e-08  0:05:45 1247
   754  3.9624e-04  2.8598e-08  5.6644e-08  0:04:36 1246
   755  3.9640e-04  2.8616e-08  5.6622e-08  0:03:40 1245
   756  3.9664e-04  2.8631e-08  5.6600e-08  0:02:56 1244
   757  3.9692e-04  2.8638e-08  5.6569e-08  0:02:21 1243
   758  3.9712e-04  2.8638e-08  5.6531e-08  0:01:53 1242
   759  3.9723e-04  2.8627e-08  5.6481e-08  0:05:38 1241

  iter  continuity  x-velocity  y-velocity     time/iter
   760  3.9729e-04  2.8604e-08  5.6424e-08  0:04:30 1240
   761  3.9732e-04  2.8571e-08  5.6359e-08  0:03:36 1239
   762  3.9731e-04  2.8530e-08  5.6289e-08  0:02:53 1238
   763  3.9728e-04  2.8484e-08  5.6215e-08  0:02:18 1237
   764  3.9723e-04  2.8434e-08  5.6158e-08  0:05:58 1236
   765  3.9712e-04  2.8383e-08  5.6111e-08  0:04:46 1235
   766  3.9692e-04  2.8328e-08  5.6058e-08  0:03:48 1234
   767  3.9666e-04  2.8272e-08  5.6000e-08  0:03:03 1233
   768  3.9633e-04  2.8215e-08  5.5939e-08  0:02:26 1232
   769  3.9594e-04  2.8158e-08  5.5871e-08  0:01:57 1231
   770  3.9550e-04  2.8099e-08  5.5796e-08  0:05:39 1230

  iter  continuity  x-velocity  y-velocity     time/iter
   771  3.9497e-04  2.8047e-08  5.5717e-08  0:04:31 1229
   772  3.9435e-04  2.7992e-08  5.5629e-08  0:03:37 1228
   773  3.9366e-04  2.7938e-08  5.5539e-08  0:02:53 1227
   774  3.9288e-04  2.7885e-08  5.5446e-08  0:02:19 1226
   775  3.9204e-04  2.7835e-08  5.5351e-08  0:01:51 1225
   776  3.9116e-04  2.7787e-08  5.5253e-08  0:05:33 1224
   777  3.9030e-04  2.7745e-08  5.5152e-08  0:04:26 1223
   778  3.8936e-04  2.7719e-08  5.5062e-08  0:03:33 1222
   779  3.8808e-04  2.7706e-08  5.5027e-08  0:02:50 1221
   780  3.8660e-04  2.7687e-08  5.4983e-08  0:02:16 1220
   781  3.8529e-04  2.7659e-08  5.4963e-08  0:01:49 1219

  iter  continuity  x-velocity  y-velocity     time/iter
   782  3.8402e-04  2.7633e-08  5.4936e-08  0:05:31 1218
   783  3.8339e-04  2.7603e-08  5.4899e-08  0:04:24 1217
   784  3.8303e-04  2.7566e-08  5.4857e-08  0:03:31 1216
   785  3.8281e-04  2.7526e-08  5.4810e-08  0:02:49 1215
   786  3.8264e-04  2.7485e-08  5.4758e-08  0:06:18 1214
   787  3.8240e-04  2.7445e-08  5.4700e-08  0:05:02 1213
   788  3.8208e-04  2.7409e-08  5.4638e-08  0:04:01 1212
   789  3.8171e-04  2.7376e-08  5.4572e-08  0:03:13 1211
   790  3.8130e-04  2.7353e-08  5.4503e-08  0:02:34 1210
   791  3.8093e-04  2.7335e-08  5.4433e-08  0:06:05 1209
   792  3.8056e-04  2.7326e-08  5.4363e-08  0:04:52 1208

  iter  continuity  x-velocity  y-velocity     time/iter
   793  3.8020e-04  2.7320e-08  5.4293e-08  0:03:53 1207
   794  3.7985e-04  2.7320e-08  5.4222e-08  0:03:06 1206
   795  3.7947e-04  2.7299e-08  5.4153e-08  0:02:29 1205
   796  3.7906e-04  2.7301e-08  5.4085e-08  0:01:59 1204
   797  3.7862e-04  2.7309e-08  5.4009e-08  0:05:36 1203
   798  3.7814e-04  2.7306e-08  5.3936e-08  0:04:28 1202
   799  3.7767e-04  2.7297e-08  5.3858e-08  0:03:35 1201
   800  3.7724e-04  2.7286e-08  5.3778e-08  0:02:52 1200
   801  3.7678e-04  2.7271e-08  5.3696e-08  0:02:17 1199
   802  3.7630e-04  2.7255e-08  5.3612e-08  0:01:50 1198
   803  3.7582e-04  2.7237e-08  5.3525e-08  0:05:27 1197

  iter  continuity  x-velocity  y-velocity     time/iter
   804  3.7530e-04  2.7217e-08  5.3437e-08  0:04:21 1196
   805  3.7485e-04  2.7194e-08  5.3351e-08  0:03:29 1195
   806  3.7439e-04  2.7173e-08  5.3266e-08  0:02:47 1194
   807  3.7395e-04  2.7150e-08  5.3179e-08  0:02:13 1193
   808  3.7351e-04  2.7132e-08  5.3092e-08  0:05:45 1192
   809  3.7308e-04  2.7116e-08  5.3004e-08  0:04:36 1191
   810  3.7265e-04  2.7104e-08  5.2918e-08  0:03:40 1190
   811  3.7224e-04  2.7092e-08  5.2834e-08  0:02:56 1189
   812  3.7183e-04  2.7072e-08  5.2755e-08  0:02:21 1188
   813  3.7143e-04  2.7042e-08  5.2681e-08  0:01:53 1187
   814  3.7102e-04  2.7006e-08  5.2608e-08  0:05:27 1186

  iter  continuity  x-velocity  y-velocity     time/iter
   815  3.7065e-04  2.6959e-08  5.2540e-08  0:04:22 1185
   816  3.7033e-04  2.6901e-08  5.2483e-08  0:03:29 1184
   817  3.6999e-04  2.6833e-08  5.2440e-08  0:02:47 1183
   818  3.6968e-04  2.6801e-08  5.2399e-08  0:02:14 1182
   819  3.6931e-04  2.6752e-08  5.2359e-08  0:05:43 1181
   820  3.6905e-04  2.6644e-08  5.2323e-08  0:04:34 1180
   821  3.6885e-04  2.6537e-08  5.2289e-08  0:03:39 1179
   822  3.6865e-04  2.6435e-08  5.2255e-08  0:02:55 1178
   823  3.6862e-04  2.6350e-08  5.2223e-08  0:02:20 1177
   824  3.6854e-04  2.6303e-08  5.2187e-08  0:01:52 1176
   825  3.6847e-04  2.6307e-08  5.2151e-08  0:05:24 1175

  iter  continuity  x-velocity  y-velocity     time/iter
   826  3.6841e-04  2.6328e-08  5.2117e-08  0:04:19 1174
   827  3.6836e-04  2.6343e-08  5.2085e-08  0:03:27 1173
   828  3.6838e-04  2.6354e-08  5.2053e-08  0:02:46 1172
   829  3.6842e-04  2.6359e-08  5.2015e-08  0:02:12 1171
   830  3.6842e-04  2.6356e-08  5.1976e-08  0:05:40 1170
   831  3.6841e-04  2.6347e-08  5.1932e-08  0:04:32 1169
   832  3.6840e-04  2.6327e-08  5.1887e-08  0:03:37 1168
   833  3.6839e-04  2.6300e-08  5.1838e-08  0:02:54 1167
   834  3.6836e-04  2.6267e-08  5.1786e-08  0:06:12 1166
   835  3.6830e-04  2.6228e-08  5.1730e-08  0:04:57 1165
   836  3.6822e-04  2.6185e-08  5.1671e-08  0:03:58 1164

  iter  continuity  x-velocity  y-velocity     time/iter
   837  3.6811e-04  2.6140e-08  5.1621e-08  0:03:10 1163
   838  3.6798e-04  2.6092e-08  5.1576e-08  0:02:32 1162
   839  3.6780e-04  2.6043e-08  5.1528e-08  0:02:01 1161
   840  3.6759e-04  2.5992e-08  5.1477e-08  0:05:29 1160
   841  3.6733e-04  2.5940e-08  5.1426e-08  0:04:23 1159
   842  3.6704e-04  2.5889e-08  5.1374e-08  0:03:30 1158
   843  3.6670e-04  2.5842e-08  5.1320e-08  0:02:48 1157
   844  3.6631e-04  2.5798e-08  5.1261e-08  0:02:14 1156
   845  3.6590e-04  2.5751e-08  5.1200e-08  0:01:47 1155
   846  3.6543e-04  2.5703e-08  5.1136e-08  0:05:17 1154
   847  3.6491e-04  2.5657e-08  5.1074e-08  0:04:13 1153

  iter  continuity  x-velocity  y-velocity     time/iter
   848  3.6432e-04  2.5612e-08  5.1011e-08  0:03:22 1152
   849  3.6372e-04  2.5573e-08  5.0944e-08  0:02:42 1151
   850  3.6308e-04  2.5535e-08  5.0872e-08  0:02:09 1150
   851  3.6240e-04  2.5519e-08  5.0812e-08  0:01:43 1149
   852  3.6149e-04  2.5505e-08  5.0787e-08  0:05:12 1148
   853  3.6041e-04  2.5488e-08  5.0750e-08  0:04:10 1147
   854  3.5936e-04  2.5465e-08  5.0729e-08  0:03:19 1146
   855  3.5841e-04  2.5447e-08  5.0710e-08  0:02:39 1145
   856  3.5782e-04  2.5421e-08  5.0688e-08  0:02:07 1144
   857  3.5726e-04  2.5390e-08  5.0662e-08  0:05:30 1143
   858  3.5688e-04  2.5356e-08  5.0631e-08  0:04:24 1142

  iter  continuity  x-velocity  y-velocity     time/iter
   859  3.5662e-04  2.5322e-08  5.0594e-08  0:03:31 1141
   860  3.5636e-04  2.5296e-08  5.0550e-08  0:02:49 1140
   861  3.5610e-04  2.5271e-08  5.0503e-08  0:02:15 1139
   862  3.5580e-04  2.5253e-08  5.0455e-08  0:01:48 1138
   863  3.5552e-04  2.5242e-08  5.0404e-08  0:05:14 1137
   864  3.5525e-04  2.5239e-08  5.0351e-08  0:04:11 1136
   865  3.5500e-04  2.5241e-08  5.0297e-08  0:03:20 1135
   866  3.5476e-04  2.5251e-08  5.0243e-08  0:02:40 1134
   867  3.5451e-04  2.5240e-08  5.0191e-08  0:02:08 1133
   868  3.5423e-04  2.5243e-08  5.0141e-08  0:01:42 1132
   869  3.5391e-04  2.5261e-08  5.0088e-08  0:05:08 1131

  iter  continuity  x-velocity  y-velocity     time/iter
   870  3.5357e-04  2.5271e-08  5.0031e-08  0:04:06 1130
   871  3.5322e-04  2.5271e-08  4.9980e-08  0:03:17 1129
   872  3.5293e-04  2.5271e-08  4.9924e-08  0:02:37 1128
   873  3.5269e-04  2.5268e-08  4.9867e-08  0:02:06 1127
   874  3.5246e-04  2.5262e-08  4.9807e-08  0:01:40 1126
   875  3.5220e-04  2.5254e-08  4.9745e-08  0:05:05 1125
   876  3.5194e-04  2.5246e-08  4.9681e-08  0:04:04 1124
   877  3.5168e-04  2.5234e-08  4.9615e-08  0:03:15 1123
   878  3.5132e-04  2.5221e-08  4.9550e-08  0:02:36 1122
   879  3.5089e-04  2.5208e-08  4.9483e-08  0:05:49 1121
   880  3.5046e-04  2.5195e-08  4.9412e-08  0:04:39 1120

  iter  continuity  x-velocity  y-velocity     time/iter
   881  3.5010e-04  2.5188e-08  4.9339e-08  0:03:43 1119
   882  3.4981e-04  2.5182e-08  4.9268e-08  0:02:58 1118
   883  3.4949e-04  2.5178e-08  4.9190e-08  0:02:22 1117
   884  3.4913e-04  2.5174e-08  4.9108e-08  0:05:37 1116
   885  3.4886e-04  2.5161e-08  4.9034e-08  0:04:29 1115
   886  3.4885e-04  2.5140e-08  4.9025e-08  0:03:35 1114
   887  3.4896e-04  2.5114e-08  4.9039e-08  0:02:52 1113
   888  3.4932e-04  2.5094e-08  4.9060e-08  0:02:18 1112
   889  3.4989e-04  2.5067e-08  4.9095e-08  0:01:50 1111
   890  3.5070e-04  2.5055e-08  4.9172e-08  0:05:10 1110
   891  3.5181e-04  2.5085e-08  4.9273e-08  0:04:08 1109

  iter  continuity  x-velocity  y-velocity     time/iter
   892  3.5311e-04  2.5043e-08  4.9398e-08  0:03:18 1108
   893  3.5460e-04  2.4998e-08  4.9526e-08  0:02:38 1107
   894  3.5587e-04  2.4964e-08  4.9630e-08  0:02:06 1106
   895  3.5698e-04  2.4933e-08  4.9716e-08  0:01:41 1105
   896  3.5798e-04  2.4917e-08  4.9787e-08  0:05:02 1104
   897  3.5924e-04  2.4946e-08  4.9902e-08  0:04:01 1103
   898  3.6044e-04  2.5019e-08  4.9996e-08  0:03:13 1102
   899  3.6138e-04  2.5085e-08  5.0065e-08  0:02:34 1101
   900  3.6205e-04  2.5137e-08  5.0106e-08  0:02:03 1100
   901  3.6233e-04  2.5173e-08  5.0125e-08  0:05:18 1099
   902  3.6211e-04  2.5187e-08  5.0122e-08  0:04:14 1098

  iter  continuity  x-velocity  y-velocity     time/iter
   903  3.6149e-04  2.5185e-08  5.0090e-08  0:03:23 1097
   904  3.6053e-04  2.5173e-08  5.0026e-08  0:02:42 1096
   905  3.5930e-04  2.5150e-08  4.9927e-08  0:02:10 1095
   906  3.5792e-04  2.5117e-08  4.9813e-08  0:01:44 1094
   907  3.5652e-04  2.5077e-08  4.9734e-08  0:05:02 1093
   908  3.5561e-04  2.5041e-08  4.9659e-08  0:04:01 1092
   909  3.5507e-04  2.5005e-08  4.9574e-08  0:03:13 1091
   910  3.5458e-04  2.4969e-08  4.9477e-08  0:02:34 1090
   911  3.5418e-04  2.4940e-08  4.9374e-08  0:02:03 1089
   912  3.5373e-04  2.4909e-08  4.9275e-08  0:01:38 1088
   913  3.5323e-04  2.4876e-08  4.9183e-08  0:04:56 1087

  iter  continuity  x-velocity  y-velocity     time/iter
   914  3.5273e-04  2.4840e-08  4.9097e-08  0:03:57 1086
   915  3.5224e-04  2.4803e-08  4.9009e-08  0:03:09 1085
   916  3.5179e-04  2.4773e-08  4.8924e-08  0:02:31 1084
   917  3.5140e-04  2.4742e-08  4.8839e-08  0:02:01 1083
   918  3.5100e-04  2.4709e-08  4.8754e-08  0:05:13 1082
   919  3.5058e-04  2.4675e-08  4.8670e-08  0:04:10 1081
   920  3.5016e-04  2.4642e-08  4.8588e-08  0:03:20 1080
   921  3.4972e-04  2.4606e-08  4.8507e-08  0:02:40 1079
   922  3.4927e-04  2.4567e-08  4.8430e-08  0:02:08 1078
   923  3.4880e-04  2.4527e-08  4.8353e-08  0:01:42 1077
   924  3.4830e-04  2.4489e-08  4.8274e-08  0:04:57 1076

  iter  continuity  x-velocity  y-velocity     time/iter
   925  3.4779e-04  2.4449e-08  4.8200e-08  0:03:57 1075
   926  3.4725e-04  2.4406e-08  4.8124e-08  0:03:10 1074
   927  3.4669e-04  2.4368e-08  4.8049e-08  0:02:32 1073
   928  3.4612e-04  2.4335e-08  4.7972e-08  0:05:36 1072
   929  3.4552e-04  2.4296e-08  4.7894e-08  0:04:28 1071
   930  3.4489e-04  2.4251e-08  4.7814e-08  0:03:34 1070
   931  3.4422e-04  2.4202e-08  4.7732e-08  0:02:51 1069
   932  3.4350e-04  2.4157e-08  4.7649e-08  0:02:17 1068
   933  3.4274e-04  2.4115e-08  4.7563e-08  0:05:23 1067
   934  3.4191e-04  2.4074e-08  4.7475e-08  0:04:18 1066
   935  3.4103e-04  2.4044e-08  4.7382e-08  0:03:26 1065

  iter  continuity  x-velocity  y-velocity     time/iter
   936  3.4018e-04  2.4019e-08  4.7284e-08  0:02:45 1064
   937  3.3933e-04  2.4001e-08  4.7182e-08  0:02:12 1063
   938  3.3844e-04  2.3988e-08  4.7080e-08  0:01:45 1062
   939  3.3746e-04  2.3971e-08  4.6978e-08  0:04:56 1061
   940  3.3654e-04  2.3940e-08  4.6874e-08  0:03:57 1060
   941  3.3640e-04  2.3938e-08  4.6779e-08  0:03:09 1059
   942  3.3659e-04  2.3943e-08  4.6790e-08  0:02:31 1058
   943  3.3725e-04  2.3959e-08  4.6862e-08  0:02:01 1057
   944  3.3822e-04  2.3990e-08  4.6981e-08  0:01:37 1056
   945  3.3984e-04  2.4025e-08  4.7141e-08  0:04:48 1055
   946  3.4087e-04  2.4061e-08  4.7320e-08  0:03:50 1054

  iter  continuity  x-velocity  y-velocity     time/iter
   947  3.4184e-04  2.4109e-08  4.7533e-08  0:03:04 1053
   948  3.4321e-04  2.4175e-08  4.7773e-08  0:02:27 1052
   949  3.4463e-04  2.4270e-08  4.7998e-08  0:01:58 1051
   950  3.4608e-04  2.4371e-08  4.8187e-08  0:01:34 1050
   951  3.4721e-04  2.4458e-08  4.8316e-08  0:04:45 1049
   952  3.4804e-04  2.4518e-08  4.8415e-08  0:03:48 1048
   953  3.4865e-04  2.4560e-08  4.8479e-08  0:03:02 1047
   954  3.4907e-04  2.4587e-08  4.8501e-08  0:02:25 1046
   955  3.4930e-04  2.4602e-08  4.8492e-08  0:01:56 1045
   956  3.4932e-04  2.4605e-08  4.8458e-08  0:05:02 1044
   957  3.4910e-04  2.4598e-08  4.8405e-08  0:04:01 1043

  iter  continuity  x-velocity  y-velocity     time/iter
   958  3.4867e-04  2.4576e-08  4.8337e-08  0:03:13 1042
   959  3.4809e-04  2.4545e-08  4.8260e-08  0:02:34 1041
   960  3.4742e-04  2.4501e-08  4.8180e-08  0:02:03 1040
   961  3.4668e-04  2.4443e-08  4.8099e-08  0:01:38 1039
   962  3.4589e-04  2.4370e-08  4.8019e-08  0:04:46 1038
   963  3.4506e-04  2.4339e-08  4.7939e-08  0:03:49 1037
   964  3.4407e-04  2.4261e-08  4.7856e-08  0:03:03 1036
   965  3.4320e-04  2.4137e-08  4.7767e-08  0:02:26 1035
   966  3.4230e-04  2.4012e-08  4.7672e-08  0:01:57 1034
   967  3.4140e-04  2.3895e-08  4.7579e-08  0:01:33 1033
   968  3.4061e-04  2.3797e-08  4.7486e-08  0:04:41 1032

  iter  continuity  x-velocity  y-velocity     time/iter
   969  3.3977e-04  2.3745e-08  4.7393e-08  0:03:45 1031
   970  3.3896e-04  2.3739e-08  4.7301e-08  0:02:59 1030
   971  3.3815e-04  2.3742e-08  4.7213e-08  0:02:23 1029
   972  3.3743e-04  2.3738e-08  4.7128e-08  0:05:20 1028
   973  3.3682e-04  2.3729e-08  4.7044e-08  0:04:16 1027
   974  3.3622e-04  2.3714e-08  4.6957e-08  0:03:25 1026
   975  3.3541e-04  2.3691e-08  4.6851e-08  0:02:43 1025
   976  3.3450e-04  2.3655e-08  4.6733e-08  0:02:11 1024
   977  3.3352e-04  2.3605e-08  4.6609e-08  0:01:44 1023
   978  3.3257e-04  2.3549e-08  4.6479e-08  0:04:48 1022
   979  3.3159e-04  2.3487e-08  4.6346e-08  0:03:50 1021

  iter  continuity  x-velocity  y-velocity     time/iter
   980  3.3057e-04  2.3420e-08  4.6211e-08  0:03:04 1020
   981  3.2949e-04  2.3350e-08  4.6072e-08  0:02:27 1019
   982  3.2837e-04  2.3278e-08  4.5930e-08  0:01:57 1018
   983  3.2720e-04  2.3208e-08  4.5786e-08  0:04:57 1017
   984  3.2603e-04  2.3138e-08  4.5637e-08  0:03:58 1016
   985  3.2496e-04  2.3067e-08  4.5484e-08  0:03:10 1015
   986  3.2385e-04  2.2998e-08  4.5332e-08  0:02:32 1014
   987  3.2276e-04  2.2929e-08  4.5179e-08  0:02:01 1013
   988  3.2168e-04  2.2871e-08  4.5024e-08  0:01:37 1012
   989  3.2083e-04  2.2823e-08  4.4880e-08  0:04:40 1011
   990  3.2043e-04  2.2790e-08  4.4803e-08  0:03:44 1010

  iter  continuity  x-velocity  y-velocity     time/iter
   991  3.2038e-04  2.2761e-08  4.4784e-08  0:02:59 1009
   992  3.2088e-04  2.2745e-08  4.4853e-08  0:02:23 1008
   993  3.2185e-04  2.2753e-08  4.4957e-08  0:01:54 1007
   994  3.2333e-04  2.2775e-08  4.5086e-08  0:04:52 1006
   995  3.2530e-04  2.2807e-08  4.5253e-08  0:03:54 1005
   996  3.2727e-04  2.2862e-08  4.5428e-08  0:03:07 1004
   997  3.2934e-04  2.2917e-08  4.5603e-08  0:02:29 1003
   998  3.3138e-04  2.2968e-08  4.5802e-08  0:01:59 1002
   999  3.3323e-04  2.3023e-08  4.5986e-08  0:01:35 1001
  1000  3.3483e-04  2.3073e-08  4.6105e-08  0:04:36 1000
  1001  3.3593e-04  2.3097e-08  4.6213e-08  0:03:41  999

  iter  continuity  x-velocity  y-velocity     time/iter
  1002  3.3702e-04  2.3105e-08  4.6342e-08  0:02:56  998
  1003  3.3786e-04  2.3116e-08  4.6438e-08  0:02:21  997
  1004  3.3833e-04  2.3121e-08  4.6497e-08  0:01:53  996
  1005  3.3837e-04  2.3125e-08  4.6536e-08  0:01:30  995
  1006  3.3810e-04  2.3124e-08  4.6565e-08  0:04:31  994
  1007  3.3749e-04  2.3118e-08  4.6557e-08  0:03:36  993
  1008  3.3668e-04  2.3113e-08  4.6521e-08  0:02:53  992
  1009  3.3564e-04  2.3112e-08  4.6453e-08  0:02:18  991
  1010  3.3441e-04  2.3114e-08  4.6359e-08  0:01:50  990
  1011  3.3306e-04  2.3125e-08  4.6241e-08  0:04:46  989
  1012  3.3173e-04  2.3111e-08  4.6130e-08  0:03:49  988

  iter  continuity  x-velocity  y-velocity     time/iter
  1013  3.3051e-04  2.3114e-08  4.6062e-08  0:03:03  987
  1014  3.2989e-04  2.3132e-08  4.5995e-08  0:02:26  986
  1015  3.2960e-04  2.3152e-08  4.5921e-08  0:01:57  985
  1016  3.2959e-04  2.3168e-08  4.5856e-08  0:01:33  984
  1017  3.2955e-04  2.3189e-08  4.5789e-08  0:04:31  983
  1018  3.2934e-04  2.3205e-08  4.5719e-08  0:03:37  982
  1019  3.2927e-04  2.3213e-08  4.5638e-08  0:02:53  981
  1020  3.2908e-04  2.3214e-08  4.5551e-08  0:02:18  980
  1021  3.2877e-04  2.3209e-08  4.5459e-08  0:05:06  979
  1022  3.2840e-04  2.3197e-08  4.5364e-08  0:04:05  978
  1023  3.2796e-04  2.3183e-08  4.5265e-08  0:03:16  977

  iter  continuity  x-velocity  y-velocity     time/iter
  1024  3.2732e-04  2.3168e-08  4.5154e-08  0:02:36  976
  1025  3.2656e-04  2.3150e-08  4.5036e-08  0:02:05  975
  1026  3.2571e-04  2.3133e-08  4.4912e-08  0:01:40  974
  1027  3.2477e-04  2.3111e-08  4.4784e-08  0:04:34  973
  1028  3.2374e-04  2.3085e-08  4.4651e-08  0:03:39  972
  1029  3.2265e-04  2.3047e-08  4.4514e-08  0:02:55  971
  1030  3.2150e-04  2.2998e-08  4.4378e-08  0:02:20  970
  1031  3.2031e-04  2.2939e-08  4.4241e-08  0:01:52  969
  1032  3.1906e-04  2.2868e-08  4.4109e-08  0:04:43  968
  1033  3.1774e-04  2.2782e-08  4.3975e-08  0:03:46  967
  1034  3.1637e-04  2.2682e-08  4.3839e-08  0:03:01  966

  iter  continuity  x-velocity  y-velocity     time/iter
  1035  3.1494e-04  2.2599e-08  4.3714e-08  0:02:24  965
  1036  3.1343e-04  2.2527e-08  4.3590e-08  0:01:55  964
  1037  3.1214e-04  2.2379e-08  4.3460e-08  0:01:32  963
  1038  3.1133e-04  2.2226e-08  4.3339e-08  0:04:26  962
  1039  3.1140e-04  2.2088e-08  4.3286e-08  0:03:33  961
  1040  3.1203e-04  2.1979e-08  4.3340e-08  0:02:50  960
  1041  3.1308e-04  2.1939e-08  4.3426e-08  0:02:16  959
  1042  3.1464e-04  2.1968e-08  4.3568e-08  0:01:49  958
  1043  3.1721e-04  2.2036e-08  4.3795e-08  0:01:27  957
  1044  3.1952e-04  2.2107e-08  4.4013e-08  0:04:21  956
  1045  3.2076e-04  2.2178e-08  4.4242e-08  0:03:28  955

  iter  continuity  x-velocity  y-velocity     time/iter
  1046  3.2019e-04  2.2257e-08  4.4361e-08  0:02:46  954
  1047  3.1994e-04  2.2314e-08  4.4428e-08  0:02:13  953
  1048  3.2044e-04  2.2368e-08  4.4561e-08  0:01:46  952
  1049  3.2174e-04  2.2427e-08  4.4717e-08  0:04:35  951
  1050  3.2311e-04  2.2478e-08  4.4856e-08  0:03:40  950
  1051  3.2367e-04  2.2522e-08  4.4910e-08  0:02:56  949
  1052  3.2398e-04  2.2553e-08  4.4931e-08  0:02:20  948
  1053  3.2422e-04  2.2570e-08  4.4927e-08  0:01:52  947
  1054  3.2423e-04  2.2572e-08  4.4903e-08  0:01:30  946
  1055  3.2406e-04  2.2563e-08  4.4858e-08  0:04:21  945
  1056  3.2373e-04  2.2545e-08  4.4799e-08  0:03:28  944

  iter  continuity  x-velocity  y-velocity     time/iter
  1057  3.2329e-04  2.2516e-08  4.4731e-08  0:02:46  943
  1058  3.2279e-04  2.2480e-08  4.4658e-08  0:02:13  942
  1059  3.2228e-04  2.2439e-08  4.4583e-08  0:01:46  941
  1060  3.2181e-04  2.2398e-08  4.4510e-08  0:01:25  940
  1061  3.2145e-04  2.2363e-08  4.4446e-08  0:04:16  939
  1062  3.2113e-04  2.2328e-08  4.4386e-08  0:03:24  938
  1063  3.2051e-04  2.2291e-08  4.4299e-08  0:02:43  937
  1064  3.1971e-04  2.2247e-08  4.4198e-08  0:02:10  936
  1065  3.1882e-04  2.2196e-08  4.4090e-08  0:01:44  935
  1066  3.1790e-04  2.2138e-08  4.3977e-08  0:04:30  934
  1067  3.1699e-04  2.2074e-08  4.3858e-08  0:03:36  933

  iter  continuity  x-velocity  y-velocity     time/iter
  1068  3.1605e-04  2.2008e-08  4.3736e-08  0:02:53  932
  1069  3.1508e-04  2.1942e-08  4.3609e-08  0:02:18  931
  1070  3.1406e-04  2.1872e-08  4.3478e-08  0:04:56  930
  1071  3.1300e-04  2.1798e-08  4.3342e-08  0:03:57  929
  1072  3.1191e-04  2.1730e-08  4.3201e-08  0:03:09  928
  1073  3.1085e-04  2.1661e-08  4.3058e-08  0:02:31  927
  1074  3.0985e-04  2.1588e-08  4.2910e-08  0:02:01  926
  1075  3.0892e-04  2.1510e-08  4.2758e-08  0:01:37  925
  1076  3.0797e-04  2.1428e-08  4.2602e-08  0:04:22  924
  1077  3.0700e-04  2.1354e-08  4.2447e-08  0:03:29  923
  1078  3.0598e-04  2.1287e-08  4.2293e-08  0:02:47  922

  iter  continuity  x-velocity  y-velocity     time/iter
  1079  3.0488e-04  2.1227e-08  4.2133e-08  0:02:14  921
  1080  3.0371e-04  2.1182e-08  4.1957e-08  0:01:47  920
  1081  3.0284e-04  2.1158e-08  4.1792e-08  0:01:25  919
  1082  3.0223e-04  2.1156e-08  4.1643e-08  0:04:12  918
  1083  3.0189e-04  2.1165e-08  4.1551e-08  0:03:21  917
  1084  3.0188e-04  2.1173e-08  4.1520e-08  0:02:41  916
  1085  3.0243e-04  2.1197e-08  4.1585e-08  0:02:09  915
  1086  3.0360e-04  2.1264e-08  4.1729e-08  0:01:43  914
  1087  3.0541e-04  2.1348e-08  4.1920e-08  0:01:22  913
  1088  3.0775e-04  2.1451e-08  4.2137e-08  0:04:08  912
  1089  3.1003e-04  2.1556e-08  4.2347e-08  0:03:18  911

  iter  continuity  x-velocity  y-velocity     time/iter
  1090  3.1193e-04  2.1641e-08  4.2512e-08  0:02:38  910
  1091  3.1328e-04  2.1706e-08  4.2610e-08  0:02:07  909
  1092  3.1398e-04  2.1749e-08  4.2626e-08  0:01:41  908
  1093  3.1394e-04  2.1770e-08  4.2618e-08  0:04:22  907
  1094  3.1377e-04  2.1770e-08  4.2647e-08  0:03:30  906
  1095  3.1446e-04  2.1772e-08  4.2715e-08  0:02:47  905
  1096  3.1514e-04  2.1786e-08  4.2794e-08  0:02:14  904
  1097  3.1571e-04  2.1803e-08  4.2876e-08  0:01:47  903
  1098  3.1610e-04  2.1826e-08  4.2938e-08  0:01:25  902
  1099  3.1632e-04  2.1852e-08  4.2989e-08  0:04:08  901
  1100  3.1643e-04  2.1877e-08  4.3012e-08  0:03:19  900

  iter  continuity  x-velocity  y-velocity     time/iter
  1101  3.1636e-04  2.1896e-08  4.3010e-08  0:02:39  899
  1102  3.1586e-04  2.1910e-08  4.2974e-08  0:02:07  898
  1103  3.1502e-04  2.1912e-08  4.2905e-08  0:01:41  897
  1104  3.1391e-04  2.1898e-08  4.2809e-08  0:01:21  896
  1105  3.1263e-04  2.1866e-08  4.2732e-08  0:04:04  895
  1106  3.1175e-04  2.1819e-08  4.2683e-08  0:03:15  894
  1107  3.1135e-04  2.1764e-08  4.2618e-08  0:02:36  893
  1108  3.1080e-04  2.1751e-08  4.2514e-08  0:02:04  892
  1109  3.0984e-04  2.1676e-08  4.2395e-08  0:01:39  891
  1110  3.0887e-04  2.1556e-08  4.2271e-08  0:04:17  890
  1111  3.0775e-04  2.1429e-08  4.2143e-08  0:03:26  889

  iter  continuity  x-velocity  y-velocity     time/iter
  1112  3.0657e-04  2.1306e-08  4.2012e-08  0:02:44  888
  1113  3.0542e-04  2.1196e-08  4.1876e-08  0:02:11  887
  1114  3.0418e-04  2.1131e-08  4.1735e-08  0:04:42  886
  1115  3.0290e-04  2.1105e-08  4.1589e-08  0:03:45  885
  1116  3.0158e-04  2.1084e-08  4.1442e-08  0:03:00  884
  1117  3.0024e-04  2.1056e-08  4.1295e-08  0:02:24  883
  1118  2.9896e-04  2.1022e-08  4.1144e-08  0:01:55  882
  1119  2.9766e-04  2.0981e-08  4.0987e-08  0:01:32  881
  1120  2.9633e-04  2.0934e-08  4.0827e-08  0:04:09  880
  1121  2.9498e-04  2.0878e-08  4.0671e-08  0:03:19  879
  1122  2.9359e-04  2.0813e-08  4.0521e-08  0:02:39  878

  iter  continuity  x-velocity  y-velocity     time/iter
  1123  2.9217e-04  2.0740e-08  4.0385e-08  0:02:07  877
  1124  2.9068e-04  2.0665e-08  4.0252e-08  0:01:42  876
  1125  2.8924e-04  2.0585e-08  4.0114e-08  0:04:16  875
  1126  2.8805e-04  2.0502e-08  3.9997e-08  0:03:25  874
  1127  2.8737e-04  2.0421e-08  3.9889e-08  0:02:44  873
  1128  2.8779e-04  2.0351e-08  3.9863e-08  0:02:11  872
  1129  2.8875e-04  2.0305e-08  3.9950e-08  0:01:44  871
  1130  2.9044e-04  2.0305e-08  4.0103e-08  0:01:23  870
  1131  2.9279e-04  2.0331e-08  4.0301e-08  0:04:01  869
  1132  2.9421e-04  2.0371e-08  4.0397e-08  0:03:12  868
  1133  2.9399e-04  2.0387e-08  4.0346e-08  0:02:34  867

  iter  continuity  x-velocity  y-velocity     time/iter
  1134  2.9320e-04  2.0368e-08  4.0244e-08  0:02:03  866
  1135  2.9250e-04  2.0338e-08  4.0187e-08  0:01:38  865
  1136  2.9207e-04  2.0312e-08  4.0187e-08  0:01:18  864
  1137  2.9202e-04  2.0293e-08  4.0176e-08  0:03:55  863
  1138  2.9208e-04  2.0274e-08  4.0155e-08  0:03:08  862
  1139  2.9208e-04  2.0256e-08  4.0141e-08  0:02:30  861
  1140  2.9196e-04  2.0242e-08  4.0129e-08  0:02:00  860
  1141  2.9169e-04  2.0229e-08  4.0110e-08  0:01:36  859
  1142  2.9136e-04  2.0214e-08  4.0083e-08  0:01:17  858
  1143  2.9105e-04  2.0191e-08  4.0050e-08  0:03:53  857
  1144  2.9075e-04  2.0167e-08  4.0009e-08  0:03:06  856

  iter  continuity  x-velocity  y-velocity     time/iter
  1145  2.9045e-04  2.0145e-08  3.9965e-08  0:02:29  855
  1146  2.9014e-04  2.0118e-08  3.9915e-08  0:01:59  854
  1147  2.8976e-04  2.0086e-08  3.9860e-08  0:01:35  853
  1148  2.8930e-04  2.0049e-08  3.9797e-08  0:04:06  852
  1149  2.8876e-04  2.0008e-08  3.9726e-08  0:03:17  851
  1150  2.8816e-04  1.9970e-08  3.9646e-08  0:02:37  850
  1151  2.8752e-04  1.9930e-08  3.9558e-08  0:02:06  849
  1152  2.8685e-04  1.9897e-08  3.9460e-08  0:01:40  848
  1153  2.8621e-04  1.9864e-08  3.9352e-08  0:01:20  847
[...]
  1750  1.7862e-04  1.2458e-08  2.3967e-08  0:01:09  250
  1751  1.7860e-04  1.2472e-08  2.3953e-08  0:00:55  249
  1752  1.7859e-04  1.2492e-08  2.3940e-08  0:00:44  248
  1753  1.7856e-04  1.2512e-08  2.3927e-08  0:00:35  247
  1754  1.7852e-04  1.2529e-08  2.3915e-08  0:00:28  246
  1755  1.7846e-04  1.2539e-08  2.3904e-08  0:00:22  245
  1756  1.7837e-04  1.2537e-08  2.3892e-08  0:01:06  244
  1757  1.7826e-04  1.2529e-08  2.3879e-08  0:00:53  243
  1758  1.7813e-04  1.2509e-08  2.3866e-08  0:00:42  242
  1759  1.7797e-04  1.2477e-08  2.3854e-08  0:00:34  241
  1760  1.7779e-04  1.2432e-08  2.3844e-08  0:00:27  240

  iter  continuity  x-velocity  y-velocity     time/iter
  1761  1.7760e-04  1.2415e-08  2.3836e-08  0:00:21  239
  1762  1.7728e-04  1.2375e-08  2.3830e-08  0:01:05  238
  1763  1.7709e-04  1.2279e-08  2.3822e-08  0:00:51  237
  1764  1.7691e-04  1.2187e-08  2.3809e-08  0:00:41  236
  1765  1.7670e-04  1.2101e-08  2.3797e-08  0:00:33  235
  1766  1.7662e-04  1.2031e-08  2.3787e-08  0:01:13  234
  1767  1.7647e-04  1.1998e-08  2.3775e-08  0:00:58  233
  1768  1.7631e-04  1.2017e-08  2.3761e-08  0:00:46  232
  1769  1.7614e-04  1.2054e-08  2.3748e-08  0:00:37  231
  1770  1.7598e-04  1.2085e-08  2.3738e-08  0:00:29  230
  1771  1.7588e-04  1.2110e-08  2.3729e-08  0:01:09  229

  iter  continuity  x-velocity  y-velocity     time/iter
  1772  1.7581e-04  1.2131e-08  2.3716e-08  0:00:55  228
  1773  1.7570e-04  1.2146e-08  2.3704e-08  0:00:44  227
  1774  1.7559e-04  1.2155e-08  2.3691e-08  0:00:35  226
  1775  1.7548e-04  1.2155e-08  2.3678e-08  0:00:28  225
  1776  1.7537e-04  1.2148e-08  2.3666e-08  0:00:22  224
  1777  1.7525e-04  1.2137e-08  2.3654e-08  0:01:02  223
  1778  1.7513e-04  1.2122e-08  2.3642e-08  0:00:50  222
  1779  1.7500e-04  1.2104e-08  2.3631e-08  0:00:39  221
  1780  1.7488e-04  1.2086e-08  2.3620e-08  0:00:31  220
  1781  1.7477e-04  1.2067e-08  2.3609e-08  0:00:25  219
  1782  1.7465e-04  1.2048e-08  2.3598e-08  0:00:20  218

  iter  continuity  x-velocity  y-velocity     time/iter
  1783  1.7453e-04  1.2030e-08  2.3587e-08  0:00:59  217
  1784  1.7440e-04  1.2012e-08  2.3576e-08  0:00:47  216
  1785  1.7428e-04  1.1995e-08  2.3566e-08  0:00:38  215
  1786  1.7417e-04  1.1978e-08  2.3556e-08  0:00:30  214
  1787  1.7383e-04  1.1971e-08  2.3519e-08  0:00:24  213
  1788  1.7342e-04  1.1960e-08  2.3472e-08  0:00:19  212
  1789  1.7300e-04  1.1945e-08  2.3420e-08  0:00:57  211
  1790  1.7264e-04  1.1927e-08  2.3372e-08  0:00:46  210
  1791  1.7234e-04  1.1907e-08  2.3330e-08  0:00:36  209
  1792  1.7210e-04  1.1884e-08  2.3293e-08  0:00:29  208
  1793  1.7193e-04  1.1858e-08  2.3259e-08  0:00:23  207

  iter  continuity  x-velocity  y-velocity     time/iter
  1794  1.7178e-04  1.1831e-08  2.3229e-08  0:00:18  206
  1795  1.7165e-04  1.1806e-08  2.3202e-08  0:00:56  205
  1796  1.7152e-04  1.1780e-08  2.3175e-08  0:00:44  204
  1797  1.7139e-04  1.1752e-08  2.3150e-08  0:00:35  203
  1798  1.7119e-04  1.1728e-08  2.3117e-08  0:00:28  202
  1799  1.7097e-04  1.1706e-08  2.3080e-08  0:00:22  201
  1800  1.7073e-04  1.1679e-08  2.3042e-08  0:00:58  200
  1801  1.7048e-04  1.1649e-08  2.3005e-08  0:00:46  199
  1802  1.7022e-04  1.1616e-08  2.2968e-08  0:00:37  198
  1803  1.6995e-04  1.1587e-08  2.2931e-08  0:00:29  197
  1804  1.6968e-04  1.1563e-08  2.2896e-08  0:00:23  196

  iter  continuity  x-velocity  y-velocity     time/iter
  1805  1.6941e-04  1.1541e-08  2.2864e-08  0:00:18  195
  1806  1.6914e-04  1.1533e-08  2.2833e-08  0:00:53  194
  1807  1.6896e-04  1.1529e-08  2.2801e-08  0:00:43  193
  1808  1.6882e-04  1.1535e-08  2.2772e-08  0:00:34  192
  1809  1.6873e-04  1.1547e-08  2.2745e-08  0:00:27  191
  1810  1.6867e-04  1.1569e-08  2.2720e-08  0:00:59  190
  1811  1.6860e-04  1.1572e-08  2.2699e-08  0:00:47  189
  1812  1.6852e-04  1.1595e-08  2.2680e-08  0:00:38  188
  1813  1.6842e-04  1.1628e-08  2.2659e-08  0:00:30  187
  1814  1.6830e-04  1.1652e-08  2.2639e-08  0:00:24  186
  1815  1.6820e-04  1.1671e-08  2.2626e-08  0:00:19  185

  iter  continuity  x-velocity  y-velocity     time/iter
  1816  1.6819e-04  1.1688e-08  2.2610e-08  0:00:52  184
  1817  1.6817e-04  1.1702e-08  2.2595e-08  0:00:41  183
  1818  1.6815e-04  1.1714e-08  2.2578e-08  0:00:33  182
  1819  1.6812e-04  1.1726e-08  2.2561e-08  0:00:26  181
  1820  1.6810e-04  1.1737e-08  2.2543e-08  0:00:21  180
  1821  1.6807e-04  1.1746e-08  2.2526e-08  0:00:52  179
  1822  1.6804e-04  1.1755e-08  2.2508e-08  0:00:42  178
  1823  1.6801e-04  1.1765e-08  2.2492e-08  0:00:33  177
  1824  1.6799e-04  1.1779e-08  2.2475e-08  0:00:26  176
  1825  1.6797e-04  1.1797e-08  2.2457e-08  0:00:21  175
  1826  1.6793e-04  1.1815e-08  2.2441e-08  0:00:17  174

  iter  continuity  x-velocity  y-velocity     time/iter
  1827  1.6787e-04  1.1828e-08  2.2426e-08  0:00:48  173
  1828  1.6779e-04  1.1832e-08  2.2410e-08  0:00:38  172
  1829  1.6768e-04  1.1825e-08  2.2393e-08  0:00:30  171
  1830  1.6754e-04  1.1812e-08  2.2376e-08  0:00:24  170
  1831  1.6738e-04  1.1786e-08  2.2358e-08  0:00:19  169
  1832  1.6719e-04  1.1747e-08  2.2341e-08  0:00:15  168
  1833  1.6697e-04  1.1696e-08  2.2326e-08  0:00:46  167
  1834  1.6674e-04  1.1689e-08  2.2311e-08  0:00:36  166
  1835  1.6638e-04  1.1621e-08  2.2297e-08  0:00:29  165
  1836  1.6617e-04  1.1520e-08  2.2277e-08  0:00:23  164
  1837  1.6592e-04  1.1421e-08  2.2254e-08  0:00:18  163

  iter  continuity  x-velocity  y-velocity     time/iter
  1838  1.6570e-04  1.1335e-08  2.2234e-08  0:00:47  162
  1839  1.6555e-04  1.1265e-08  2.2213e-08  0:00:37  161
  1840  1.6536e-04  1.1245e-08  2.2191e-08  0:00:30  160
  1841  1.6518e-04  1.1267e-08  2.2170e-08  0:00:24  159
  1842  1.6499e-04  1.1299e-08  2.2150e-08  0:00:19  158
  1843  1.6482e-04  1.1323e-08  2.2133e-08  0:00:15  157
  1844  1.6471e-04  1.1342e-08  2.2116e-08  0:00:43  156
  1845  1.6459e-04  1.1357e-08  2.2095e-08  0:00:34  155
  1846  1.6444e-04  1.1366e-08  2.2073e-08  0:00:27  154
  1847  1.6429e-04  1.1368e-08  2.2052e-08  0:00:22  153
  1848  1.6415e-04  1.1360e-08  2.2032e-08  0:00:17  152

  iter  continuity  x-velocity  y-velocity     time/iter
  1849  1.6400e-04  1.1347e-08  2.2011e-08  0:00:14  151
  1850  1.6385e-04  1.1330e-08  2.1991e-08  0:00:41  150
  1851  1.6369e-04  1.1309e-08  2.1972e-08  0:00:32  149
  1852  1.6352e-04  1.1287e-08  2.1952e-08  0:00:26  148
  1853  1.6336e-04  1.1264e-08  2.1933e-08  0:00:20  147
  1854  1.6319e-04  1.1240e-08  2.1914e-08  0:00:45  146
  1855  1.6302e-04  1.1216e-08  2.1894e-08  0:00:36  145
  1856  1.6285e-04  1.1192e-08  2.1874e-08  0:00:29  144
  1857  1.6267e-04  1.1170e-08  2.1854e-08  0:00:23  143
  1858  1.6250e-04  1.1148e-08  2.1834e-08  0:00:18  142
  1859  1.6235e-04  1.1129e-08  2.1814e-08  0:00:43  141

  iter  continuity  x-velocity  y-velocity     time/iter
  1860  1.6219e-04  1.1117e-08  2.1794e-08  0:00:34  140
  1861  1.6206e-04  1.1105e-08  2.1774e-08  0:00:27  139
  1862  1.6194e-04  1.1092e-08  2.1754e-08  0:00:21  138
  1863  1.6181e-04  1.1080e-08  2.1735e-08  0:00:17  137
  1864  1.6168e-04  1.1067e-08  2.1716e-08  0:00:13  136
  1865  1.6155e-04  1.1052e-08  2.1699e-08  0:00:38  135
  1866  1.6142e-04  1.1035e-08  2.1681e-08  0:00:30  134
  1867  1.6129e-04  1.1017e-08  2.1664e-08  0:00:24  133
  1868  1.6115e-04  1.1000e-08  2.1647e-08  0:00:19  132
  1869  1.6101e-04  1.0982e-08  2.1630e-08  0:00:15  131
  1870  1.6087e-04  1.0961e-08  2.1613e-08  0:00:12  130

  iter  continuity  x-velocity  y-velocity     time/iter
  1871  1.6072e-04  1.0947e-08  2.1596e-08  0:00:35  129
  1872  1.6058e-04  1.0933e-08  2.1579e-08  0:00:28  128
  1873  1.6043e-04  1.0916e-08  2.1561e-08  0:00:22  127
  1874  1.6026e-04  1.0895e-08  2.1544e-08  0:00:18  126
  1875  1.6009e-04  1.0871e-08  2.1526e-08  0:00:14  125
  1876  1.5990e-04  1.0854e-08  2.1508e-08  0:00:36  124
  1877  1.5969e-04  1.0841e-08  2.1490e-08  0:00:28  123
  1878  1.5947e-04  1.0831e-08  2.1473e-08  0:00:23  122
  1879  1.5928e-04  1.0833e-08  2.1455e-08  0:00:18  121
  1880  1.5916e-04  1.0838e-08  2.1437e-08  0:00:14  120
  1881  1.5907e-04  1.0853e-08  2.1420e-08  0:00:11  119

  iter  continuity  x-velocity  y-velocity     time/iter
  1882  1.5901e-04  1.0873e-08  2.1404e-08  0:00:33  118
  1883  1.5898e-04  1.0899e-08  2.1389e-08  0:00:26  117
  1884  1.5894e-04  1.0907e-08  2.1377e-08  0:00:20  116
  1885  1.5887e-04  1.0941e-08  2.1367e-08  0:00:16  115
  1886  1.5878e-04  1.0976e-08  2.1352e-08  0:00:13  114
  1887  1.5867e-04  1.1001e-08  2.1339e-08  0:00:10  113
  1888  1.5859e-04  1.1023e-08  2.1327e-08  0:00:31  112
  1889  1.5856e-04  1.1041e-08  2.1314e-08  0:00:24  111
  1890  1.5852e-04  1.1057e-08  2.1300e-08  0:00:19  110
  1891  1.5848e-04  1.1071e-08  2.1284e-08  0:00:15  109
  1892  1.5843e-04  1.1085e-08  2.1268e-08  0:00:12  108

  iter  continuity  x-velocity  y-velocity     time/iter
  1893  1.5838e-04  1.1096e-08  2.1251e-08  0:00:31  107
  1894  1.5833e-04  1.1106e-08  2.1235e-08  0:00:25  106
  1895  1.5828e-04  1.1117e-08  2.1218e-08  0:00:19  105
  1896  1.5824e-04  1.1127e-08  2.1202e-08  0:00:15  104
  1897  1.5820e-04  1.1144e-08  2.1186e-08  0:00:12  103
  1898  1.5816e-04  1.1162e-08  2.1170e-08  0:00:10  102
  1899  1.5810e-04  1.1180e-08  2.1155e-08  0:00:28  101
  1900  1.5803e-04  1.1192e-08  2.1140e-08  0:00:22  100
  1901  1.5792e-04  1.1193e-08  2.1124e-08  0:00:17   99
  1902  1.5779e-04  1.1185e-08  2.1108e-08  0:00:14   98
  1903  1.5764e-04  1.1169e-08  2.1092e-08  0:00:30   97

  iter  continuity  x-velocity  y-velocity     time/iter
  1904  1.5746e-04  1.1139e-08  2.1074e-08  0:00:24   96
  1905  1.5726e-04  1.1098e-08  2.1057e-08  0:00:19   95
  1906  1.5703e-04  1.1055e-08  2.1043e-08  0:00:15   94
  1907  1.5679e-04  1.1047e-08  2.1030e-08  0:00:12   93
  1908  1.5646e-04  1.0958e-08  2.1018e-08  0:00:28   92
  1909  1.5623e-04  1.0857e-08  2.0998e-08  0:00:22   91
  1910  1.5597e-04  1.0761e-08  2.0977e-08  0:00:17   90
  1911  1.5581e-04  1.0679e-08  2.0961e-08  0:00:14   89
  1912  1.5565e-04  1.0622e-08  2.0942e-08  0:00:11   88
  1913  1.5547e-04  1.0616e-08  2.0923e-08  0:00:09   87
  1914  1.5530e-04  1.0646e-08  2.0904e-08  0:00:24   86

  iter  continuity  x-velocity  y-velocity     time/iter
  1915  1.5512e-04  1.0675e-08  2.0888e-08  0:00:19   85
  1916  1.5498e-04  1.0699e-08  2.0874e-08  0:00:15   84
  1917  1.5489e-04  1.0718e-08  2.0858e-08  0:00:12   83
  1918  1.5478e-04  1.0732e-08  2.0840e-08  0:00:09   82
  1919  1.5464e-04  1.0740e-08  2.0820e-08  0:00:07   81
  1920  1.5451e-04  1.0740e-08  2.0801e-08  0:00:22   80
  1921  1.5437e-04  1.0732e-08  2.0783e-08  0:00:17   79
  1922  1.5424e-04  1.0719e-08  2.0765e-08  0:00:14   78
  1923  1.5409e-04  1.0702e-08  2.0747e-08  0:00:11   77
  1924  1.5394e-04  1.0681e-08  2.0729e-08  0:00:09   76
  1925  1.5379e-04  1.0659e-08  2.0711e-08  0:00:07   75

  iter  continuity  x-velocity  y-velocity     time/iter
  1926  1.5364e-04  1.0636e-08  2.0694e-08  0:00:20   74
  1927  1.5349e-04  1.0613e-08  2.0677e-08  0:00:16   73
  1928  1.5333e-04  1.0590e-08  2.0659e-08  0:00:13   72
  1929  1.5317e-04  1.0568e-08  2.0641e-08  0:00:10   71
  1930  1.5301e-04  1.0546e-08  2.0623e-08  0:00:08   70
  1931  1.5286e-04  1.0525e-08  2.0605e-08  0:00:20   69
  1932  1.5272e-04  1.0508e-08  2.0588e-08  0:00:16   68
  1933  1.5259e-04  1.0497e-08  2.0570e-08  0:00:12   67
  1934  1.5247e-04  1.0486e-08  2.0553e-08  0:00:10   66
  1935  1.5236e-04  1.0474e-08  2.0535e-08  0:00:08   65
  1936  1.5225e-04  1.0463e-08  2.0518e-08  0:00:06   64

  iter  continuity  x-velocity  y-velocity     time/iter
  1937  1.5213e-04  1.0451e-08  2.0503e-08  0:00:17   63
  1938  1.5201e-04  1.0436e-08  2.0487e-08  0:00:14   62
  1939  1.5190e-04  1.0418e-08  2.0472e-08  0:00:11   61
  1940  1.5178e-04  1.0402e-08  2.0457e-08  0:00:08   60
  1941  1.5167e-04  1.0386e-08  2.0443e-08  0:00:07   59
  1942  1.5154e-04  1.0367e-08  2.0428e-08  0:00:17   58
  1943  1.5141e-04  1.0348e-08  2.0413e-08  0:00:13   57
  1944  1.5128e-04  1.0336e-08  2.0397e-08  0:00:10   56
  1945  1.5116e-04  1.0321e-08  2.0382e-08  0:00:08   55
  1946  1.5102e-04  1.0304e-08  2.0367e-08  0:00:17   54
  1947  1.5087e-04  1.0283e-08  2.0351e-08  0:00:14   53

  iter  continuity  x-velocity  y-velocity     time/iter
  1948  1.5071e-04  1.0261e-08  2.0335e-08  0:00:11   52
  1949  1.5053e-04  1.0245e-08  2.0320e-08  0:00:08   51
  1950  1.5034e-04  1.0233e-08  2.0304e-08  0:00:07   50
  1951  1.5014e-04  1.0227e-08  2.0289e-08  0:00:05   49
  1952  1.4998e-04  1.0230e-08  2.0273e-08  0:00:14   48
  1953  1.4988e-04  1.0238e-08  2.0256e-08  0:00:11   47
  1954  1.4981e-04  1.0254e-08  2.0241e-08  0:00:08   46
  1955  1.4978e-04  1.0277e-08  2.0227e-08  0:00:07   45
  1956  1.4975e-04  1.0297e-08  2.0215e-08  0:00:05   44
  1957  1.4972e-04  1.0311e-08  2.0205e-08  0:00:13   43
  1958  1.4966e-04  1.0349e-08  2.0196e-08  0:00:10   42

  iter  continuity  x-velocity  y-velocity     time/iter
  1959  1.4958e-04  1.0383e-08  2.0182e-08  0:00:08   41
  1960  1.4949e-04  1.0407e-08  2.0173e-08  0:00:06   40
  1961  1.4944e-04  1.0430e-08  2.0162e-08  0:00:05   39
  1962  1.4943e-04  1.0449e-08  2.0150e-08  0:00:04   38
  1963  1.4941e-04  1.0465e-08  2.0138e-08  0:00:10   37
  1964  1.4938e-04  1.0479e-08  2.0124e-08  0:00:08   36
  1965  1.4935e-04  1.0494e-08  2.0110e-08  0:00:06   35
  1966  1.4932e-04  1.0506e-08  2.0095e-08  0:00:05   34
  1967  1.4928e-04  1.0517e-08  2.0082e-08  0:00:04   33
  1968  1.4924e-04  1.0529e-08  2.0068e-08  0:00:03   32
  1969  1.4921e-04  1.0542e-08  2.0055e-08  0:00:08   31

  iter  continuity  x-velocity  y-velocity     time/iter
  1970  1.4919e-04  1.0560e-08  2.0041e-08  0:00:07   30
  1971  1.4916e-04  1.0579e-08  2.0028e-08  0:00:05   29
  1972  1.4911e-04  1.0597e-08  2.0016e-08  0:00:04   28
  1973  1.4904e-04  1.0608e-08  2.0003e-08  0:00:03   27
  1974  1.4894e-04  1.0608e-08  1.9991e-08  0:00:08   26
  1975  1.4881e-04  1.0599e-08  1.9977e-08  0:00:06   25
  1976  1.4866e-04  1.0581e-08  1.9963e-08  0:00:04   24
  1977  1.4849e-04  1.0550e-08  1.9948e-08  0:00:03   23
  1978  1.4829e-04  1.0506e-08  1.9935e-08  0:00:03   22
  1979  1.4808e-04  1.0476e-08  1.9924e-08  0:00:06   21
  1980  1.4778e-04  1.0450e-08  1.9915e-08  0:00:05   20

  iter  continuity  x-velocity  y-velocity     time/iter
  1981  1.4752e-04  1.0356e-08  1.9904e-08  0:00:04   19
  1982  1.4731e-04  1.0261e-08  1.9887e-08  0:00:03   18
  1983  1.4705e-04  1.0170e-08  1.9870e-08  0:00:02   17
  1984  1.4693e-04  1.0093e-08  1.9856e-08  0:00:02   16
  1985  1.4678e-04  1.0047e-08  1.9840e-08  0:00:04   15
  1986  1.4661e-04  1.0053e-08  1.9824e-08  0:00:03   14
  1987  1.4645e-04  1.0087e-08  1.9808e-08  0:00:02   13
  1988  1.4629e-04  1.0117e-08  1.9796e-08  0:00:02   12
  1989  1.4618e-04  1.0141e-08  1.9785e-08  0:00:01   11
  1990  1.4611e-04  1.0162e-08  1.9770e-08  0:00:01   10
  1991  1.4601e-04  1.0175e-08  1.9755e-08  0:00:02    9

  iter  continuity  x-velocity  y-velocity     time/iter
  1992  1.4589e-04  1.0185e-08  1.9739e-08  0:00:02    8
  1993  1.4578e-04  1.0185e-08  1.9724e-08  0:00:01    7
  1994  1.4567e-04  1.0177e-08  1.9709e-08  0:00:01    6
  1995  1.4556e-04  1.0165e-08  1.9694e-08  0:00:02    5
  1996  1.4544e-04  1.0149e-08  1.9679e-08  0:00:01    4
  1997  1.4531e-04  1.0130e-08  1.9664e-08  0:00:01    3
  1998  1.4518e-04  1.0110e-08  1.9650e-08  0:00:00    2
  1999  1.4506e-04  1.0090e-08  1.9637e-08  0:00:00    1
  2000  1.4493e-04  1.0069e-08  1.9622e-08  0:00:00    0

> 
adjoint/                parallel/               server/
define/                 parametric-study/       solve/
display/                plot/                   surface/
exit                    preferences/            views/
file/                   print-license-usage
mesh/                   report/

> ;create rakes
surface/rake-surface cv_inlet -0.005 -0.065 -0.005 0.065 1000

> surface/rake-surface cv_outlet 1.005 -0.065 1.005 0.065 1000

> surface/rake-surface cv_top -0.005 0.065 1.005 0.065 1000

> surface/rake-surface cv_bottom -0.005 -0.065 1.005 -0.065 1000

> surface/point-surface free-stream -15 0

> 
adjoint/                parallel/               server/
define/                 parametric-study/       solve/
display/                plot/                   surface/
exit                    preferences/            views/
file/                   print-license-usage
mesh/                   report/

> ;export data
file/export/ascii NP_CVinlet_data cv_inlet () no pressure x-velocity y-velocity dx-velocity-dx dx-velocity-dy dy-velocity-dx dy-velocity-dy q no 
Writing "NP_CVinlet_data"...

Writing information to ascii file ...
Done.

ok


Overwrite confirmations (/file/set-batch-options ...)
are on -- will therefore ignore the following journal
Error: invalid command: ok


> file/export/ascii NP_CVoutlet_data cv_outlet () no pressure x-velocity y-velocity dx-velocity-dx dx-velocity-dy dy-velocity-dx dy-velocity-dy q no 
Writing "NP_CVoutlet_data"...

Writing information to ascii file ...
Done.

ok


Overwrite confirmations (/file/set-batch-options ...)
are on -- will therefore ignore the following journal
Error: invalid command: ok


> file/export/ascii NP_CVtop_data cv_top () no pressure x-velocity y-velocity dx-velocity-dx dx-velocity-dy dy-velocity-dx dy-velocity-dy q no 
Writing "NP_CVtop_data"...

Writing information to ascii file ...
Done.

ok


Overwrite confirmations (/file/set-batch-options ...)
are on -- will therefore ignore the following journal
Error: invalid command: ok


> file/export/ascii NP_CVbottom_data cv_bottom () no pressure x-velocity y-velocity dx-velocity-dx dx-velocity-dy dy-velocity-dx dy-velocity-dy q no 
Writing "NP_CVbottom_data"...

Writing information to ascii file ...
Done.

ok


Overwrite confirmations (/file/set-batch-options ...)
are on -- will therefore ignore the following journal
Error: invalid command: ok


> file/export/ascii air_properties free-stream () no density viscosity-lam q no 
Writing "air_properties"...

Writing information to ascii file ...
Done.

ok


Overwrite confirmations (/file/set-batch-options ...)
are on -- will therefore ignore the following journal
Error: invalid command: ok


> 
adjoint/                parallel/               server/
define/                 parametric-study/       solve/
display/                plot/                   surface/
exit                    preferences/            views/
file/                   print-license-usage
mesh/                   report/

> ;flag file to know when simulation is over
file/export/ascii flag_file free-stream () no pressure q no 
Writing "flag_file"...

Writing information to ascii file ...
Done.

ok


Overwrite confirmations (/file/set-batch-options ...)
are on -- will therefore ignore the following journal
Error: invalid command: ok


> 
adjoint/                parallel/               server/
define/                 parametric-study/       solve/
display/                plot/                   surface/
exit                    preferences/            views/
file/                   print-license-usage
mesh/                   report/

>  Error in the fluent (fl) process : ended abnormally

===================================================================================
=   BAD TERMINATION OF ONE OF YOUR APPLICATION PROCESSES
=   RANK 0 PID 24312 RUNNING AT 37PCL050
=   EXIT STATUS: 1073807364 (40010004)
===================================================================================
