Auto-Transcript Start Time:  20:31:46, 01 Jul 2025 GMT Summer Time 
Current Directory: "C:\Users\V.Chepuri\OneDrive - Cranfield University\irp\pablo\AOA_4"

              Welcome to ANSYS Fluent 2024 R2

              Copyright 1987-2024 ANSYS, Inc. All Rights Reserved.
              Unauthorized use, distribution or duplication is prohibited.
              This product is subject to U.S. laws governing export and re-export.
              For full Legal Notice, see documentation.

Build Time: May 13 2024 11:28:30 EST  Build Id: 10192  
 
Connected License Server List:	1055@cclic-2.central.cranfield.ac.uk

*********************************************
Info: Your license enables 4-way parallel execution.
For faster simulations, please start the application with the appropriate parallel options.
*********************************************


     --------------------------------------------------------------
     This is an academic version of ANSYS FLUENT. Usage of this product
     license is limited to the terms and conditions specified in your ANSYS
     license form, additional terms section.
     --------------------------------------------------------------
Host spawning Node 0 on machine "37PCL051" (win64).

-------------------------------------------------------------------------------
ID    Hostname  Core  O.S.         PID    Vendor                          
-------------------------------------------------------------------------------
n0    37PCL051  1/28  Windows-x64  20608  Intel(R) Core(TM) i7-14700      
host  37PCL051        Windows-x64  26752  Intel(R) Core(TM) i7-14700      

MPI Option Selected: intel
-------------------------------------------------------------------------------

Cleanup script file is C:\\Users\\V.Chepuri\\OneDrive - Cranfield University\\irp\\pablo\\AOA_4\\cleanup-fluent-37PCL051-26752.bat

Posting ANSYS Product Improvement Program startup data
Done.

> (cx-gui-do cx-activate-item "Key Behavioral Changes*PanelButtons*PushButton1(OK)")
(cx-gui-do cx-activate-item "MenuBar*ReadSubMenu*Case...")
(cx-gui-do cx-activate-item "MenuBar*ReadSubMenu*Journal...")

Reading journal file C:/Users/V.Chepuri/OneDrive - Cranfield University/irp/pablo/AOA_4/template.jou...

> ;change to correct dir

file/read-case template_medium.cas.h5 Fast-loading "C:\PROGRA~1\ANSYSI~1\v242\fluent\fluent24.2.0\\addons\afd\lib\hdfio.bin"
Done.

37PCL051 has other FLUENT parallel processes running.                       Process affinity not being set.

Reading from 37PCL051:"C:\Users\V.Chepuri\OneDrive - Cranfield University\irp\pablo\AOA_4\template_medium.cas.h5" in NODE0 mode ...
  Reading mesh ...
      181070 cells,     4 cell zones ...
          36824 mixed cells,  zone id: 2
         108032 mixed cells,  zone id: 4
          27008 mixed cells,  zone id: 12
           9206 mixed cells,  zone id: 11
      309160 faces,    14 face zones ...
          65137 2D interior faces,  zone id: 3
         181145 2D interior faces,  zone id: 5
             42 2D velocity-inlet faces,  zone id: 6
             38 2D pressure-outlet faces,  zone id: 7
             40 2D velocity-inlet faces,  zone id: 8
            458 2D interior faces,  zone id: 9
            456 2D interior faces,  zone id: 10
            228 2D parent-face faces,  zone id: 19
            229 2D parent-face faces,  zone id: 18
             20 2D parent-face faces,  zone id: 17
             19 2D parent-face faces,  zone id: 16
             21 2D parent-face faces,  zone id: 15
          45157 2D parent-face faces,  zone id: 14
          16170 2D parent-face faces,  zone id: 13
      102461 nodes,     1 node zone  ...
  Done.


Building...
     mesh
     materials,
     interface,
     domains,
	mixture
     zones,
	outlet
	inlet
	interior-fluid
	interior-porous
	symmetry
	upper
	lower
	fluid
	porous
WARNING: "Smooth" contours can't be displayed when node-values is set to off. Changing the Coloring type to "Banded".
     parallel,
Done.
OK


Overwrite confirmations (/file/set-batch-options ...)
are on -- will therefore ignore the following journal
Error: invalid command: OK


> 
adjoint/                parallel/               server/
define/                 parametric-study/       solve/
display/                plot/                   surface/
exit                    preferences/            views/
file/                   print-license-usage
mesh/                   report/

> 
adjoint/                parallel/               server/
define/                 parametric-study/       solve/
display/                plot/                   surface/
exit                    preferences/            views/
file/                   print-license-usage
mesh/                   report/

> 
adjoint/                parallel/               server/
define/                 parametric-study/       solve/
display/                plot/                   surface/
exit                    preferences/            views/
file/                   print-license-usage
mesh/                   report/

> ;run simulation
solve/initialize/initialize-flow

> solve/iterate 2000

  iter  continuity  x-velocity  y-velocity     time/iter
     1  1.0000e+00  6.4271e-05  1.5062e-02  0:33:19 1999
     2  8.7621e-01  2.4361e-04  1.1089e-02  0:33:18 1998
     3  3.9922e-01  2.0036e-04  7.9219e-03  0:26:38 1997
     4  2.2502e-01  1.6351e-04  5.2770e-03  0:21:17 1996
     5  1.4630e-01  1.3148e-04  3.2239e-03  0:23:40 1995
     6  1.0752e-01  1.1623e-04  1.8506e-03  0:18:56 1994
     7  8.3826e-02  1.0448e-04  1.0170e-03  0:15:08 1993
     8  6.8519e-02  9.4262e-05  5.4378e-04  0:12:06 1992
     9  5.8380e-02  8.4243e-05  2.8646e-04  0:16:19 1991
    10  4.9318e-02  7.4194e-05  1.5003e-04  0:13:03 1990
    11  4.1495e-02  6.5398e-05  7.8829e-05  0:10:26 1989

  iter  continuity  x-velocity  y-velocity     time/iter
    12  3.5340e-02  5.7081e-05  4.2328e-05  0:14:58 1988
    13  3.0349e-02  4.9636e-05  2.3696e-05  0:11:58 1987
    14  2.6106e-02  4.3183e-05  1.4288e-05  0:09:34 1986
    15  2.2474e-02  3.7405e-05  9.4849e-06  0:07:39 1985
    16  1.9343e-02  3.1604e-05  6.8819e-06  0:12:44 1984
    17  1.7227e-02  2.7741e-05  5.5150e-06  0:10:11 1983
    18  1.5014e-02  2.3588e-05  4.6052e-06  0:08:08 1982
    19  1.3480e-02  2.0835e-05  4.0455e-06  0:06:31 1981
    20  1.1906e-02  1.7904e-05  3.5675e-06  0:11:48 1980
    21  1.0686e-02  1.6030e-05  3.2491e-06  0:09:26 1979
    22  9.6377e-03  1.4269e-05  2.9961e-06  0:07:33 1978

  iter  continuity  x-velocity  y-velocity     time/iter
    23  8.7314e-03  1.2696e-05  2.7749e-06  0:12:37 1977
    24  7.9105e-03  1.1230e-05  2.5790e-06  0:10:06 1976
    25  7.1452e-03  9.9761e-06  2.4043e-06  0:08:04 1975
    26  6.4920e-03  8.8994e-06  2.2398e-06  0:13:02 1974
    27  5.7612e-03  7.6415e-06  2.0589e-06  0:10:25 1973
    28  5.2741e-03  6.9592e-06  1.9299e-06  0:08:20 1972
    29  4.7859e-03  6.1073e-06  1.7969e-06  0:13:14 1971
    30  4.4381e-03  5.6998e-06  1.6941e-06  0:10:35 1970
    31  4.0553e-03  5.0578e-06  1.5808e-06  0:08:28 1969
    32  3.7144e-03  4.5472e-06  1.4761e-06  0:06:46 1968
    33  3.4198e-03  4.0906e-06  1.3871e-06  0:11:58 1967

  iter  continuity  x-velocity  y-velocity     time/iter
    34  3.2114e-03  3.8422e-06  1.3172e-06  0:09:34 1966
    35  2.9457e-03  3.3996e-06  1.2339e-06  0:07:39 1965
    36  2.7025e-03  3.0345e-06  1.1580e-06  0:06:07 1964
    37  2.5171e-03  2.8388e-06  1.0976e-06  0:11:26 1963
    38  2.2999e-03  2.4992e-06  1.0338e-06  0:09:09 1962
    39  2.1122e-03  2.2386e-06  9.7435e-07  0:07:19 1961
    40  1.9458e-03  2.0132e-06  9.2072e-07  0:05:51 1960
    41  1.7908e-03  1.8134e-06  8.7223e-07  0:04:40 1959
    42  1.6531e-03  1.6353e-06  8.2938e-07  0:10:16 1958
    43  1.5314e-03  1.4787e-06  7.8990e-07  0:08:12 1957
    44  1.4240e-03  1.3389e-06  7.5259e-07  0:06:34 1956

  iter  continuity  x-velocity  y-velocity     time/iter
    45  1.3252e-03  1.2132e-06  7.1884e-07  0:05:15 1955
    46  1.2342e-03  1.0997e-06  6.8793e-07  0:10:43 1954
    47  1.1450e-03  9.9718e-07  6.5966e-07  0:08:34 1953
    48  1.0643e-03  9.0489e-07  6.3427e-07  0:06:51 1952
    49  9.9488e-04  8.2252e-07  6.1088e-07  0:05:28 1951
    50  9.3375e-04  7.5013e-07  5.9023e-07  0:10:53 1950
    51  8.7759e-04  6.8643e-07  5.7197e-07  0:08:42 1949
    52  8.2854e-04  6.3068e-07  5.5585e-07  0:06:57 1948
    53  7.8533e-04  5.8106e-07  5.4115e-07  0:12:03 1947
    54  7.4654e-04  5.3616e-07  5.2772e-07  0:09:38 1946
    55  7.1009e-04  4.9563e-07  5.1507e-07  0:14:11 1945

  iter  continuity  x-velocity  y-velocity     time/iter
    56  6.7657e-04  4.5945e-07  5.0321e-07  0:11:21 1944
    57  6.4563e-04  4.2644e-07  4.9217e-07  0:15:33 1943
    58  6.1743e-04  3.9669e-07  4.8154e-07  0:12:26 1942
    59  5.9177e-04  3.6980e-07  4.7145e-07  0:16:25 1941
    60  5.6783e-04  3.4583e-07  4.6163e-07  0:13:07 1940
    61  5.4618e-04  3.2502e-07  4.5251e-07  0:16:57 1939
    62  5.2660e-04  3.0646e-07  4.4377e-07  0:13:33 1938
    63  5.0857e-04  2.9000e-07  4.3527e-07  0:17:18 1937
    64  4.9198e-04  2.7521e-07  4.2702e-07  0:13:50 1936
    65  4.7915e-04  2.6880e-07  4.1788e-07  0:17:31 1935
    66  4.6423e-04  2.5401e-07  4.1170e-07  0:14:00 1934

  iter  continuity  x-velocity  y-velocity     time/iter
    67  4.5309e-04  2.4858e-07  4.0377e-07  0:17:38 1933
    68  4.3997e-04  2.3624e-07  3.9817e-07  0:14:06 1932
    69  4.3036e-04  2.3167e-07  3.9073e-07  0:17:43 1931
    70  4.1878e-04  2.2056e-07  3.8549e-07  0:14:10 1930
    71  4.0856e-04  2.1191e-07  3.7967e-07  0:11:19 1929
    72  4.0059e-04  2.0901e-07  3.7240e-07  0:15:29 1928
    73  3.9091e-04  1.9969e-07  3.6760e-07  0:12:23 1927
    74  3.8223e-04  1.9252e-07  3.6235e-07  0:09:54 1926
    75  3.7409e-04  1.8626e-07  3.5699e-07  0:14:20 1925
    76  3.6631e-04  1.8049e-07  3.5167e-07  0:11:28 1924
    77  3.5893e-04  1.7495e-07  3.4645e-07  0:09:10 1923

  iter  continuity  x-velocity  y-velocity     time/iter
    78  3.5170e-04  1.6964e-07  3.4138e-07  0:07:20 1922
    79  3.4480e-04  1.6456e-07  3.3641e-07  0:12:16 1921
    80  3.3832e-04  1.5980e-07  3.3158e-07  0:09:48 1920
    81  3.3223e-04  1.5535e-07  3.2691e-07  0:07:50 1919
    82  3.2646e-04  1.5121e-07  3.2240e-07  0:06:16 1918
    83  3.2100e-04  1.4739e-07  3.1800e-07  0:11:24 1917
    84  3.1598e-04  1.4417e-07  3.1380e-07  0:09:07 1916
    85  3.1118e-04  1.4096e-07  3.0982e-07  0:07:17 1915
    86  3.0667e-04  1.3813e-07  3.0602e-07  0:05:50 1914
    87  3.0241e-04  1.3568e-07  3.0239e-07  0:11:02 1913
    88  2.9830e-04  1.3350e-07  2.9889e-07  0:08:50 1912

  iter  continuity  x-velocity  y-velocity     time/iter
    89  2.9440e-04  1.3153e-07  2.9549e-07  0:07:03 1911
    90  2.9073e-04  1.2976e-07  2.9219e-07  0:05:39 1910
    91  2.8728e-04  1.2819e-07  2.8901e-07  0:04:31 1909
    92  2.8404e-04  1.2685e-07  2.8592e-07  0:09:58 1908
    93  2.8121e-04  1.2568e-07  2.8293e-07  0:07:58 1907
    94  2.7823e-04  1.2428e-07  2.8001e-07  0:06:22 1906
    95  2.7545e-04  1.2294e-07  2.7712e-07  0:05:06 1905
    96  2.7275e-04  1.2170e-07  2.7430e-07  0:10:25 1904
    97  2.7008e-04  1.2050e-07  2.7153e-07  0:08:20 1903
    98  2.6742e-04  1.1931e-07  2.6884e-07  0:06:40 1902
    99  2.6482e-04  1.1813e-07  2.6622e-07  0:05:20 1901

  iter  continuity  x-velocity  y-velocity     time/iter
   100  2.6227e-04  1.1695e-07  2.6369e-07  0:10:36 1900
   101  2.5978e-04  1.1570e-07  2.6124e-07  0:08:28 1899
   102  2.5744e-04  1.1447e-07  2.5881e-07  0:06:46 1898
   103  2.5510e-04  1.1326e-07  2.5644e-07  0:05:25 1897
   104  2.5279e-04  1.1207e-07  2.5414e-07  0:10:39 1896
   105  2.5111e-04  1.1261e-07  2.5094e-07  0:08:31 1895
   106  2.4858e-04  1.1048e-07  2.4951e-07  0:06:49 1894
   107  2.4621e-04  1.0890e-07  2.4767e-07  0:05:27 1893
   108  2.4392e-04  1.0758e-07  2.4564e-07  0:10:40 1892
   109  2.4170e-04  1.0638e-07  2.4355e-07  0:08:31 1891
   110  2.3949e-04  1.0520e-07  2.4143e-07  0:06:49 1890

  iter  continuity  x-velocity  y-velocity     time/iter
   111  2.3728e-04  1.0399e-07  2.3934e-07  0:05:27 1889
   112  2.3514e-04  1.0274e-07  2.3721e-07  0:10:39 1888
   113  2.3307e-04  1.0152e-07  2.3515e-07  0:08:31 1887
   114  2.3176e-04  1.0212e-07  2.3229e-07  0:06:49 1886
   115  2.2948e-04  9.9911e-08  2.3096e-07  0:05:27 1885
   116  2.2735e-04  9.8401e-08  2.2929e-07  0:04:21 1884
   117  2.2533e-04  9.7197e-08  2.2747e-07  0:09:45 1883
   118  2.2339e-04  9.6200e-08  2.2557e-07  0:07:48 1882
   119  2.2152e-04  9.5296e-08  2.2370e-07  0:06:14 1881
   120  2.2036e-04  9.6155e-08  2.2107e-07  0:04:59 1880
   121  2.1829e-04  9.4266e-08  2.1986e-07  0:10:15 1879

  iter  continuity  x-velocity  y-velocity     time/iter
   122  2.1644e-04  9.3093e-08  2.1833e-07  0:08:12 1878
   123  2.1469e-04  9.2260e-08  2.1665e-07  0:06:33 1877
   124  2.1304e-04  9.1622e-08  2.1493e-07  0:11:30 1876
   125  2.1143e-04  9.1030e-08  2.1320e-07  0:09:11 1875
   126  2.0986e-04  9.0449e-08  2.1149e-07  0:07:21 1874
   127  2.0893e-04  9.1546e-08  2.0908e-07  0:05:53 1873
   128  2.0714e-04  8.9884e-08  2.0800e-07  0:10:56 1872
   129  2.0552e-04  8.8885e-08  2.0661e-07  0:08:45 1871
   130  2.0401e-04  8.8148e-08  2.0509e-07  0:07:00 1870
   131  2.0260e-04  8.7557e-08  2.0352e-07  0:05:35 1869
   132  2.0122e-04  8.7006e-08  2.0195e-07  0:10:42 1868

  iter  continuity  x-velocity  y-velocity     time/iter
   133  1.9988e-04  8.6457e-08  2.0041e-07  0:08:33 1867
   134  1.9855e-04  8.5905e-08  1.9891e-07  0:06:50 1866
   135  1.9725e-04  8.5349e-08  1.9743e-07  0:05:28 1865
   136  1.9598e-04  8.4792e-08  1.9598e-07  0:10:35 1864
   137  1.9473e-04  8.4240e-08  1.9454e-07  0:08:28 1863
   138  1.9351e-04  8.3692e-08  1.9314e-07  0:06:46 1862
   139  1.9231e-04  8.3154e-08  1.9176e-07  0:05:25 1861
   140  1.9115e-04  8.2627e-08  1.9040e-07  0:10:32 1860
   141  1.9003e-04  8.2117e-08  1.8907e-07  0:08:25 1859
   142  1.8894e-04  8.1622e-08  1.8775e-07  0:06:44 1858
   143  1.8788e-04  8.1138e-08  1.8645e-07  0:05:23 1857

  iter  continuity  x-velocity  y-velocity     time/iter
   144  1.8683e-04  8.0664e-08  1.8517e-07  0:04:18 1856
   145  1.8581e-04  8.0196e-08  1.8391e-07  0:09:37 1855
   146  1.8475e-04  7.9731e-08  1.8264e-07  0:07:42 1854
   147  1.8370e-04  7.9268e-08  1.8135e-07  0:06:09 1853
   148  1.8266e-04  7.8804e-08  1.8008e-07  0:04:55 1852
   149  1.8165e-04  7.8335e-08  1.7884e-07  0:10:06 1851
   150  1.8067e-04  7.7864e-08  1.7761e-07  0:08:05 1850
   151  1.7970e-04  7.7392e-08  1.7642e-07  0:06:28 1849
   152  1.7874e-04  7.6920e-08  1.7523e-07  0:05:10 1848
   153  1.7780e-04  7.6454e-08  1.7405e-07  0:10:17 1847
   154  1.7686e-04  7.5991e-08  1.7290e-07  0:08:13 1846

  iter  continuity  x-velocity  y-velocity     time/iter
   155  1.7593e-04  7.5530e-08  1.7176e-07  0:06:35 1845
   156  1.7500e-04  7.5073e-08  1.7063e-07  0:05:15 1844
   157  1.7409e-04  7.4620e-08  1.6951e-07  0:10:21 1843
   158  1.7319e-04  7.4170e-08  1.6842e-07  0:08:16 1842
   159  1.7230e-04  7.3725e-08  1.6734e-07  0:06:37 1841
   160  1.7143e-04  7.3287e-08  1.6629e-07  0:05:17 1840
   161  1.7056e-04  7.2854e-08  1.6526e-07  0:04:14 1839
   162  1.6971e-04  7.2427e-08  1.6424e-07  0:09:30 1838
   163  1.6886e-04  7.2007e-08  1.6325e-07  0:07:36 1837
   164  1.6802e-04  7.1591e-08  1.6227e-07  0:06:05 1836
   165  1.6718e-04  7.1179e-08  1.6128e-07  0:04:52 1835

  iter  continuity  x-velocity  y-velocity     time/iter
   166  1.6633e-04  7.0773e-08  1.6029e-07  0:10:00 1834
   167  1.6547e-04  7.0372e-08  1.5930e-07  0:08:00 1833
   168  1.6462e-04  6.9975e-08  1.5832e-07  0:06:24 1832
   169  1.6376e-04  6.9582e-08  1.5736e-07  0:05:07 1831
   170  1.6292e-04  6.9192e-08  1.5640e-07  0:10:11 1830
   171  1.6209e-04  6.8805e-08  1.5545e-07  0:08:09 1829
   172  1.6127e-04  6.8419e-08  1.5450e-07  0:06:31 1828
   173  1.6047e-04  6.8038e-08  1.5356e-07  0:11:18 1827
   174  1.5968e-04  6.7663e-08  1.5263e-07  0:09:02 1826
   175  1.5891e-04  6.7291e-08  1.5171e-07  0:07:13 1825
   176  1.5819e-04  6.6923e-08  1.5079e-07  0:05:46 1824

  iter  continuity  x-velocity  y-velocity     time/iter
   177  1.5749e-04  6.6560e-08  1.4990e-07  0:10:42 1823
   178  1.5679e-04  6.6204e-08  1.4904e-07  0:08:33 1822
   179  1.5609e-04  6.5853e-08  1.4819e-07  0:06:50 1821
   180  1.5538e-04  6.5507e-08  1.4734e-07  0:05:28 1820
   181  1.5469e-04  6.5163e-08  1.4650e-07  0:10:26 1819
   182  1.5399e-04  6.4821e-08  1.4567e-07  0:08:21 1818
   183  1.5331e-04  6.4479e-08  1.4485e-07  0:06:40 1817
   184  1.5263e-04  6.4138e-08  1.4402e-07  0:05:20 1816
   185  1.5195e-04  6.3796e-08  1.4321e-07  0:04:16 1815
   186  1.5128e-04  6.3455e-08  1.4239e-07  0:09:27 1814
   187  1.5062e-04  6.3113e-08  1.4159e-07  0:07:34 1813

  iter  continuity  x-velocity  y-velocity     time/iter
   188  1.4996e-04  6.2773e-08  1.4080e-07  0:06:03 1812
   189  1.4932e-04  6.2435e-08  1.4005e-07  0:04:50 1811
   190  1.4869e-04  6.2103e-08  1.3930e-07  0:09:54 1810
   191  1.4808e-04  6.1848e-08  1.3854e-07  0:07:55 1809
   192  1.4745e-04  6.1534e-08  1.3781e-07  0:06:20 1808
   193  1.4681e-04  6.1204e-08  1.3708e-07  0:05:04 1807
   194  1.4618e-04  6.0877e-08  1.3636e-07  0:10:04 1806
   195  1.4555e-04  6.0560e-08  1.3565e-07  0:08:03 1805
   196  1.4493e-04  6.0253e-08  1.3494e-07  0:12:27 1804
   197  1.4432e-04  5.9954e-08  1.3425e-07  0:09:57 1803
   198  1.4373e-04  5.9663e-08  1.3356e-07  0:13:58 1802

  iter  continuity  x-velocity  y-velocity     time/iter
   199  1.4314e-04  5.9380e-08  1.3287e-07  0:11:10 1801
   200  1.4257e-04  5.9104e-08  1.3219e-07  0:14:56 1800
   201  1.4202e-04  5.8833e-08  1.3152e-07  0:11:56 1799
   202  1.4148e-04  5.8566e-08  1.3086e-07  0:09:33 1798
   203  1.4096e-04  5.8301e-08  1.3021e-07  0:13:37 1797
   204  1.4045e-04  5.8036e-08  1.2956e-07  0:10:53 1796
   205  1.3996e-04  5.7771e-08  1.2893e-07  0:14:41 1795
   206  1.3948e-04  5.7507e-08  1.2830e-07  0:11:45 1794
   207  1.3901e-04  5.7244e-08  1.2768e-07  0:15:22 1793
   208  1.3854e-04  5.6981e-08  1.2707e-07  0:12:17 1792
   209  1.3803e-04  5.6721e-08  1.2645e-07  0:15:48 1791

  iter  continuity  x-velocity  y-velocity     time/iter
   210  1.3747e-04  5.6461e-08  1.2581e-07  0:12:38 1790
   211  1.3690e-04  5.6200e-08  1.2518e-07  0:16:04 1789
   212  1.3634e-04  5.5941e-08  1.2455e-07  0:12:50 1788
   213  1.3579e-04  5.5684e-08  1.2392e-07  0:10:16 1787
   214  1.3525e-04  5.5430e-08  1.2330e-07  0:14:10 1786
   215  1.3471e-04  5.5181e-08  1.2268e-07  0:11:19 1785
   216  1.3418e-04  5.4934e-08  1.2206e-07  0:15:00 1784
   217  1.3366e-04  5.4706e-08  1.2145e-07  0:12:00 1783
   218  1.3313e-04  5.4476e-08  1.2085e-07  0:15:32 1782
   219  1.3261e-04  5.4244e-08  1.2026e-07  0:12:25 1781
   220  1.3209e-04  5.4011e-08  1.1967e-07  0:15:52 1780

  iter  continuity  x-velocity  y-velocity     time/iter
   221  1.3159e-04  5.3780e-08  1.1908e-07  0:12:41 1779
   222  1.3110e-04  5.3552e-08  1.1851e-07  0:16:04 1778
   223  1.3063e-04  5.3325e-08  1.1794e-07  0:12:51 1777
   224  1.3016e-04  5.3100e-08  1.1738e-07  0:16:11 1776
   225  1.2971e-04  5.2875e-08  1.1683e-07  0:12:57 1775
   226  1.2926e-04  5.2652e-08  1.1629e-07  0:16:16 1774
   227  1.2881e-04  5.2431e-08  1.1575e-07  0:13:00 1773
   228  1.2837e-04  5.2213e-08  1.1522e-07  0:10:24 1772
   229  1.2791e-04  5.1996e-08  1.1468e-07  0:14:13 1771
   230  1.2745e-04  5.1778e-08  1.1415e-07  0:11:22 1770
   231  1.2698e-04  5.1560e-08  1.1361e-07  0:14:59 1769

  iter  continuity  x-velocity  y-velocity     time/iter
   232  1.2651e-04  5.1341e-08  1.1308e-07  0:11:59 1768
   233  1.2605e-04  5.1123e-08  1.1255e-07  0:15:28 1767
   234  1.2558e-04  5.0906e-08  1.1202e-07  0:12:22 1766
   235  1.2512e-04  5.0690e-08  1.1150e-07  0:15:46 1765
   236  1.2466e-04  5.0477e-08  1.1098e-07  0:12:37 1764
   237  1.2422e-04  5.0266e-08  1.1047e-07  0:10:05 1763
   238  1.2378e-04  5.0058e-08  1.0996e-07  0:13:56 1762
   239  1.2335e-04  4.9852e-08  1.0946e-07  0:11:09 1761
   240  1.2293e-04  4.9648e-08  1.0897e-07  0:14:47 1760
   241  1.2251e-04  4.9447e-08  1.0849e-07  0:11:49 1759
   242  1.2209e-04  4.9248e-08  1.0801e-07  0:15:18 1758

  iter  continuity  x-velocity  y-velocity     time/iter
   243  1.2168e-04  4.9051e-08  1.0753e-07  0:12:14 1757
   244  1.2128e-04  4.8857e-08  1.0706e-07  0:15:38 1756
   245  1.2088e-04  4.8664e-08  1.0659e-07  0:12:30 1755
   246  1.2048e-04  4.8475e-08  1.0613e-07  0:15:51 1754
   247  1.2009e-04  4.8288e-08  1.0567e-07  0:12:40 1753
   248  1.1971e-04  4.8102e-08  1.0521e-07  0:10:08 1752
   249  1.1932e-04  4.7918e-08  1.0476e-07  0:13:56 1751
   250  1.1894e-04  4.7735e-08  1.0432e-07  0:11:08 1750
   251  1.1857e-04  4.7555e-08  1.0389e-07  0:14:44 1749
   252  1.1820e-04  4.7377e-08  1.0346e-07  0:11:47 1748
   253  1.1785e-04  4.7200e-08  1.0304e-07  0:15:15 1747

  iter  continuity  x-velocity  y-velocity     time/iter
   254  1.1750e-04  4.7026e-08  1.0263e-07  0:12:11 1746
   255  1.1716e-04  4.6855e-08  1.0222e-07  0:15:34 1745
   256  1.1683e-04  4.6686e-08  1.0183e-07  0:12:27 1744
   257  1.1650e-04  4.6520e-08  1.0143e-07  0:15:46 1743
   258  1.1616e-04  4.6356e-08  1.0104e-07  0:12:36 1742
   259  1.1584e-04  4.6194e-08  1.0066e-07  0:10:04 1741
   260  1.1552e-04  4.6034e-08  1.0029e-07  0:13:51 1740
   261  1.1521e-04  4.5876e-08  9.9922e-08  0:11:05 1739
   262  1.1491e-04  4.5720e-08  9.9560e-08  0:14:39 1738
   263  1.1462e-04  4.5567e-08  9.9205e-08  0:11:43 1737
   264  1.1433e-04  4.5414e-08  9.8853e-08  0:15:09 1736

  iter  continuity  x-velocity  y-velocity     time/iter
   265  1.1405e-04  4.5264e-08  9.8504e-08  0:12:07 1735
   266  1.1375e-04  4.5115e-08  9.8157e-08  0:15:28 1734
   267  1.1343e-04  4.4967e-08  9.7810e-08  0:12:22 1733
   268  1.1312e-04  4.4820e-08  9.7472e-08  0:15:40 1732
   269  1.1281e-04  4.4671e-08  9.7133e-08  0:12:31 1731
   270  1.1248e-04  4.4522e-08  9.6788e-08  0:10:01 1730
   271  1.1214e-04  4.4372e-08  9.6431e-08  0:13:46 1729
   272  1.1178e-04  4.4220e-08  9.6067e-08  0:16:46 1728
   273  1.1140e-04  4.4066e-08  9.5696e-08  0:13:24 1727
   274  1.1100e-04  4.3909e-08  9.5317e-08  0:16:28 1726
   275  1.1059e-04  4.3752e-08  9.4933e-08  0:13:10 1725

  iter  continuity  x-velocity  y-velocity     time/iter
   276  1.1017e-04  4.3592e-08  9.4546e-08  0:10:32 1724
   277  1.0975e-04  4.3432e-08  9.4154e-08  0:14:10 1723
   278  1.0932e-04  4.3271e-08  9.3762e-08  0:11:19 1722
   279  1.0890e-04  4.3110e-08  9.3373e-08  0:14:47 1721
   280  1.0849e-04  4.2949e-08  9.2989e-08  0:11:50 1720
   281  1.0810e-04  4.2788e-08  9.2608e-08  0:15:11 1719
   282  1.0773e-04  4.2628e-08  9.2230e-08  0:12:08 1718
   283  1.0736e-04  4.2468e-08  9.1858e-08  0:15:26 1717
   284  1.0699e-04  4.2310e-08  9.1494e-08  0:12:20 1716
   285  1.0664e-04  4.2154e-08  9.1135e-08  0:15:35 1715
   286  1.0631e-04  4.1999e-08  9.0782e-08  0:12:27 1714

  iter  continuity  x-velocity  y-velocity     time/iter
   287  1.0600e-04  4.1846e-08  9.0436e-08  0:09:58 1713
   288  1.0568e-04  4.1694e-08  9.0091e-08  0:13:40 1712
   289  1.0535e-04  4.1543e-08  8.9744e-08  0:10:56 1711
   290  1.0501e-04  4.1392e-08  8.9395e-08  0:14:26 1710
   291  1.0468e-04  4.1241e-08  8.9043e-08  0:11:33 1709
   292  1.0433e-04  4.1090e-08  8.8690e-08  0:14:55 1708
   293  1.0398e-04  4.0939e-08  8.8344e-08  0:11:56 1707
   294  1.0362e-04  4.0786e-08  8.8001e-08  0:15:14 1706
   295  1.0326e-04  4.0633e-08  8.7653e-08  0:12:10 1705
   296  1.0289e-04  4.0479e-08  8.7301e-08  0:09:44 1704
   297  1.0252e-04  4.0330e-08  8.6950e-08  0:13:28 1703

  iter  continuity  x-velocity  y-velocity     time/iter
   298  1.0215e-04  4.0184e-08  8.6599e-08  0:10:46 1702
   299  1.0179e-04  4.0041e-08  8.6253e-08  0:14:16 1701
   300  1.0144e-04  3.9901e-08  8.5910e-08  0:11:25 1700
   301  1.0110e-04  3.9763e-08  8.5574e-08  0:14:47 1699
   302  1.0077e-04  3.9625e-08  8.5242e-08  0:11:49 1698
   303  1.0045e-04  3.9490e-08  8.4914e-08  0:15:07 1697
   304  1.0013e-04  3.9354e-08  8.4591e-08  0:12:05 1696
   305  9.9821e-05  3.9219e-08  8.4271e-08  0:09:40 1695
   306  9.9516e-05  3.9084e-08  8.3956e-08  0:13:22 1694
   307  9.9211e-05  3.8949e-08  8.3646e-08  0:10:41 1693
   308  9.8908e-05  3.8815e-08  8.3336e-08  0:14:11 1692

  iter  continuity  x-velocity  y-velocity     time/iter
   309  9.8606e-05  3.8681e-08  8.3027e-08  0:11:21 1691
   310  9.8302e-05  3.8547e-08  8.2720e-08  0:14:42 1690
   311  9.7997e-05  3.8413e-08  8.2413e-08  0:11:45 1689
   312  9.7688e-05  3.8280e-08  8.2107e-08  0:15:01 1688
   313  9.7378e-05  3.8147e-08  8.1801e-08  0:12:01 1687
   314  9.7068e-05  3.8015e-08  8.1495e-08  0:15:13 1686
   315  9.6759e-05  3.7883e-08  8.1189e-08  0:12:10 1685
   316  9.6448e-05  3.7753e-08  8.0882e-08  0:09:44 1684
   317  9.6135e-05  3.7623e-08  8.0572e-08  0:13:23 1683
   318  9.5822e-05  3.7493e-08  8.0265e-08  0:10:42 1682
   319  9.5511e-05  3.7364e-08  7.9958e-08  0:14:10 1681

  iter  continuity  x-velocity  y-velocity     time/iter
   320  9.5202e-05  3.7235e-08  7.9653e-08  0:11:19 1680
   321  9.4895e-05  3.7106e-08  7.9350e-08  0:14:39 1679
   322  9.4589e-05  3.6978e-08  7.9050e-08  0:11:43 1678
   323  9.4286e-05  3.6850e-08  7.8753e-08  0:14:57 1677
   324  9.3986e-05  3.6723e-08  7.8457e-08  0:11:57 1676
   325  9.3688e-05  3.6598e-08  7.8164e-08  0:15:09 1675
   326  9.3390e-05  3.6473e-08  7.7875e-08  0:12:06 1674
   327  9.3095e-05  3.6349e-08  7.7590e-08  0:15:15 1673
   328  9.2802e-05  3.6226e-08  7.7309e-08  0:12:12 1672
   329  9.2510e-05  3.6104e-08  7.7032e-08  0:09:45 1671
   330  9.2220e-05  3.5982e-08  7.6760e-08  0:13:22 1670

  iter  continuity  x-velocity  y-velocity     time/iter
   331  9.1935e-05  3.5861e-08  7.6491e-08  0:10:41 1669
   332  9.1654e-05  3.5742e-08  7.6225e-08  0:14:06 1668
   333  9.1375e-05  3.5624e-08  7.5960e-08  0:11:17 1667
   334  9.1098e-05  3.5506e-08  7.5696e-08  0:14:34 1666
   335  9.0824e-05  3.5391e-08  7.5434e-08  0:11:39 1665
   336  9.0552e-05  3.5276e-08  7.5172e-08  0:14:52 1664
   337  9.0281e-05  3.5161e-08  7.4912e-08  0:11:53 1663
   338  9.0011e-05  3.5047e-08  7.4653e-08  0:15:02 1662
   339  8.9740e-05  3.4933e-08  7.4395e-08  0:12:01 1661
   340  8.9472e-05  3.4820e-08  7.4139e-08  0:09:37 1660
   341  8.9203e-05  3.4707e-08  7.3884e-08  0:13:13 1659

  iter  continuity  x-velocity  y-velocity     time/iter
   342  8.8935e-05  3.4595e-08  7.3630e-08  0:10:34 1658
   343  8.8667e-05  3.4483e-08  7.3379e-08  0:13:58 1657
   344  8.8401e-05  3.4372e-08  7.3129e-08  0:11:10 1656
   345  8.8136e-05  3.4261e-08  7.2881e-08  0:14:27 1655
   346  8.7872e-05  3.4151e-08  7.2634e-08  0:11:33 1654
   347  8.7608e-05  3.4041e-08  7.2389e-08  0:14:45 1653
   348  8.7346e-05  3.3932e-08  7.2144e-08  0:11:47 1652
   349  8.7085e-05  3.3823e-08  7.1901e-08  0:09:26 1651
   350  8.6826e-05  3.3715e-08  7.1658e-08  0:13:02 1650
   351  8.6570e-05  3.3607e-08  7.1419e-08  0:10:25 1649
   352  8.6313e-05  3.3500e-08  7.1182e-08  0:13:50 1648

  iter  continuity  x-velocity  y-velocity     time/iter
   353  8.6058e-05  3.3393e-08  7.0945e-08  0:11:03 1647
   354  8.5804e-05  3.3286e-08  7.0710e-08  0:14:19 1646
   355  8.5552e-05  3.3181e-08  7.0476e-08  0:11:27 1645
   356  8.5300e-05  3.3077e-08  7.0242e-08  0:14:38 1644
   357  8.5049e-05  3.2973e-08  7.0008e-08  0:11:42 1643
   358  8.4799e-05  3.2870e-08  6.9775e-08  0:14:50 1642
   359  8.4549e-05  3.2768e-08  6.9544e-08  0:11:51 1641
   360  8.4301e-05  3.2666e-08  6.9317e-08  0:09:29 1640
   361  8.4054e-05  3.2565e-08  6.9091e-08  0:13:03 1639
   362  8.3809e-05  3.2465e-08  6.8868e-08  0:10:26 1638
   363  8.3564e-05  3.2365e-08  6.8646e-08  0:13:48 1637

  iter  continuity  x-velocity  y-velocity     time/iter
   364  8.3320e-05  3.2265e-08  6.8424e-08  0:11:02 1636
   365  8.3077e-05  3.2166e-08  6.8204e-08  0:14:16 1635
   366  8.2835e-05  3.2067e-08  6.7986e-08  0:11:24 1634
   367  8.2594e-05  3.1969e-08  6.7769e-08  0:14:34 1633
   368  8.2356e-05  3.1871e-08  6.7553e-08  0:11:39 1632
   369  8.2123e-05  3.1775e-08  6.7341e-08  0:09:19 1631
   370  8.1892e-05  3.1679e-08  6.7131e-08  0:12:53 1630
   371  8.1662e-05  3.1583e-08  6.6922e-08  0:15:43 1629
   372  8.1431e-05  3.1488e-08  6.6715e-08  0:12:34 1628
   373  8.1201e-05  3.1393e-08  6.6509e-08  0:15:28 1627
   374  8.0969e-05  3.1299e-08  6.6303e-08  0:12:22 1626

  iter  continuity  x-velocity  y-velocity     time/iter
   375  8.0738e-05  3.1206e-08  6.6098e-08  0:09:53 1625
   376  8.0507e-05  3.1113e-08  6.5895e-08  0:13:19 1624
   377  8.0279e-05  3.1021e-08  6.5693e-08  0:10:39 1623
   378  8.0048e-05  3.0929e-08  6.5490e-08  0:13:55 1622
   379  7.9818e-05  3.0837e-08  6.5287e-08  0:11:08 1621
   380  7.9591e-05  3.0746e-08  6.5085e-08  0:14:18 1620
   381  7.9366e-05  3.0654e-08  6.4883e-08  0:11:26 1619
   382  7.9143e-05  3.0563e-08  6.4683e-08  0:14:32 1618
   383  7.8926e-05  3.0473e-08  6.4485e-08  0:11:37 1617
   384  7.8711e-05  3.0384e-08  6.4290e-08  0:14:41 1616
   385  7.8500e-05  3.0295e-08  6.4095e-08  0:11:44 1615

  iter  continuity  x-velocity  y-velocity     time/iter
   386  7.8289e-05  3.0208e-08  6.3901e-08  0:09:23 1614
   387  7.8082e-05  3.0121e-08  6.3710e-08  0:12:53 1613
   388  7.7877e-05  3.0035e-08  6.3521e-08  0:10:18 1612
   389  7.7673e-05  2.9949e-08  6.3333e-08  0:13:36 1611
   390  7.7470e-05  2.9863e-08  6.3148e-08  0:10:52 1610
   391  7.7267e-05  2.9778e-08  6.2963e-08  0:14:03 1609
   392  7.7065e-05  2.9693e-08  6.2779e-08  0:11:14 1608
   393  7.6864e-05  2.9609e-08  6.2595e-08  0:14:21 1607
   394  7.6662e-05  2.9525e-08  6.2411e-08  0:11:28 1606
   395  7.6457e-05  2.9442e-08  6.2227e-08  0:14:31 1605
   396  7.6253e-05  2.9358e-08  6.2043e-08  0:11:36 1604

  iter  continuity  x-velocity  y-velocity     time/iter
   397  7.6050e-05  2.9276e-08  6.1861e-08  0:09:17 1603
   398  7.5850e-05  2.9194e-08  6.1681e-08  0:12:46 1602
   399  7.5652e-05  2.9112e-08  6.1502e-08  0:10:12 1601
   400  7.5457e-05  2.9031e-08  6.1325e-08  0:13:29 1600
   401  7.5268e-05  2.8951e-08  6.1153e-08  0:10:47 1599
   402  7.5092e-05  2.8872e-08  6.0987e-08  0:13:57 1598
   403  7.4919e-05  2.8794e-08  6.0824e-08  0:11:09 1597
   404  7.4744e-05  2.8719e-08  6.0662e-08  0:14:14 1596
   405  7.4566e-05  2.8644e-08  6.0500e-08  0:11:23 1595
   406  7.4384e-05  2.8570e-08  6.0337e-08  0:09:06 1594
   407  7.4201e-05  2.8497e-08  6.0174e-08  0:12:35 1593

  iter  continuity  x-velocity  y-velocity     time/iter
   408  7.4014e-05  2.8423e-08  6.0009e-08  0:10:04 1592
   409  7.3826e-05  2.8350e-08  5.9841e-08  0:13:21 1591
   410  7.3637e-05  2.8277e-08  5.9673e-08  0:10:40 1590
   411  7.3448e-05  2.8204e-08  5.9503e-08  0:13:50 1589
   412  7.3261e-05  2.8131e-08  5.9335e-08  0:11:03 1588
   413  7.3078e-05  2.8063e-08  5.9168e-08  0:14:08 1587
   414  7.2896e-05  2.7994e-08  5.9001e-08  0:11:18 1586
   415  7.2715e-05  2.7925e-08  5.8836e-08  0:14:19 1585
   416  7.2535e-05  2.7856e-08  5.8673e-08  0:11:27 1584
   417  7.2356e-05  2.7786e-08  5.8511e-08  0:09:09 1583
   418  7.2178e-05  2.7716e-08  5.8351e-08  0:12:35 1582

  iter  continuity  x-velocity  y-velocity     time/iter
   419  7.2001e-05  2.7646e-08  5.8192e-08  0:10:04 1581
   420  7.1826e-05  2.7576e-08  5.8034e-08  0:13:19 1580
   421  7.1651e-05  2.7506e-08  5.7877e-08  0:10:39 1579
   422  7.1477e-05  2.7436e-08  5.7721e-08  0:13:46 1578
   423  7.1305e-05  2.7367e-08  5.7565e-08  0:11:01 1577
   424  7.1134e-05  2.7299e-08  5.7411e-08  0:14:03 1576
   425  7.0961e-05  2.7231e-08  5.7254e-08  0:11:14 1575
   426  7.0788e-05  2.7163e-08  5.7097e-08  0:14:14 1574
   427  7.0614e-05  2.7095e-08  5.6940e-08  0:11:23 1573
   428  7.0439e-05  2.7027e-08  5.6782e-08  0:14:20 1572
   429  7.0265e-05  2.6958e-08  5.6623e-08  0:11:28 1571

  iter  continuity  x-velocity  y-velocity     time/iter
   430  7.0091e-05  2.6890e-08  5.6464e-08  0:09:10 1570
   431  6.9918e-05  2.6823e-08  5.6306e-08  0:12:33 1569
   432  6.9746e-05  2.6756e-08  5.6149e-08  0:10:02 1568
   433  6.9586e-05  2.6691e-08  5.5997e-08  0:13:15 1567
   434  6.9433e-05  2.6627e-08  5.5852e-08  0:10:36 1566
   435  6.9284e-05  2.6565e-08  5.5711e-08  0:13:41 1565
   436  6.9132e-05  2.6502e-08  5.5570e-08  0:10:56 1564
   437  6.8980e-05  2.6439e-08  5.5431e-08  0:13:57 1563
   438  6.8832e-05  2.6379e-08  5.5296e-08  0:11:10 1562
   439  6.8687e-05  2.6319e-08  5.5164e-08  0:14:07 1561
   440  6.8545e-05  2.6260e-08  5.5031e-08  0:11:18 1560

  iter  continuity  x-velocity  y-velocity     time/iter
   441  6.8403e-05  2.6201e-08  5.4899e-08  0:09:02 1559
   442  6.8259e-05  2.6143e-08  5.4767e-08  0:12:25 1558
   443  6.8114e-05  2.6086e-08  5.4634e-08  0:09:55 1557
   444  6.7967e-05  2.6029e-08  5.4502e-08  0:13:07 1556
   445  6.7819e-05  2.5971e-08  5.4368e-08  0:10:29 1555
   446  6.7671e-05  2.5914e-08  5.4233e-08  0:13:34 1554
   447  6.7521e-05  2.5855e-08  5.4096e-08  0:10:51 1553
   448  6.7365e-05  2.5797e-08  5.3958e-08  0:13:51 1552
   449  6.7206e-05  2.5737e-08  5.3818e-08  0:11:04 1551
   450  6.7044e-05  2.5676e-08  5.3676e-08  0:08:51 1550
   451  6.6880e-05  2.5615e-08  5.3532e-08  0:12:14 1549

  iter  continuity  x-velocity  y-velocity     time/iter
   452  6.6712e-05  2.5552e-08  5.3387e-08  0:09:47 1548
   453  6.6543e-05  2.5489e-08  5.3242e-08  0:12:59 1547
   454  6.6375e-05  2.5425e-08  5.3095e-08  0:10:23 1546
   455  6.6206e-05  2.5361e-08  5.2946e-08  0:13:27 1545
   456  6.6034e-05  2.5296e-08  5.2795e-08  0:10:45 1544
   457  6.5861e-05  2.5231e-08  5.2644e-08  0:13:44 1543
   458  6.5688e-05  2.5165e-08  5.2494e-08  0:10:59 1542
   459  6.5516e-05  2.5099e-08  5.2344e-08  0:13:55 1541
   460  6.5345e-05  2.5034e-08  5.2194e-08  0:11:08 1540
   461  6.5175e-05  2.4968e-08  5.2046e-08  0:08:54 1539
   462  6.5011e-05  2.4903e-08  5.1900e-08  0:12:14 1538

  iter  continuity  x-velocity  y-velocity     time/iter
   463  6.4855e-05  2.4839e-08  5.1756e-08  0:09:47 1537
   464  6.4702e-05  2.4775e-08  5.1613e-08  0:12:57 1536
   465  6.4552e-05  2.4711e-08  5.1472e-08  0:10:21 1535
   466  6.4405e-05  2.4649e-08  5.1334e-08  0:13:23 1534
   467  6.4260e-05  2.4587e-08  5.1198e-08  0:10:42 1533
   468  6.4117e-05  2.4526e-08  5.1064e-08  0:13:40 1532
   469  6.3977e-05  2.4465e-08  5.0933e-08  0:10:55 1531
   470  6.3840e-05  2.4407e-08  5.0802e-08  0:13:50 1530
   471  6.3705e-05  2.4349e-08  5.0674e-08  0:11:04 1529
   472  6.3570e-05  2.4291e-08  5.0549e-08  0:13:56 1528
   473  6.3436e-05  2.4235e-08  5.0424e-08  0:11:08 1527

  iter  continuity  x-velocity  y-velocity     time/iter
   474  6.3304e-05  2.4178e-08  5.0302e-08  0:14:00 1526
   475  6.3175e-05  2.4122e-08  5.0181e-08  0:11:11 1525
   476  6.3047e-05  2.4067e-08  5.0062e-08  0:08:57 1524
   477  6.2921e-05  2.4013e-08  4.9946e-08  0:12:14 1523
   478  6.2797e-05  2.3959e-08  4.9833e-08  0:09:47 1522
   479  6.2675e-05  2.3906e-08  4.9722e-08  0:12:53 1521
   480  6.2555e-05  2.3854e-08  4.9612e-08  0:10:18 1520
   481  6.2403e-05  2.3802e-08  4.9484e-08  0:13:18 1519
   482  6.2227e-05  2.3748e-08  4.9338e-08  0:10:38 1518
   483  6.2044e-05  2.3689e-08  4.9183e-08  0:13:33 1517
   484  6.1864e-05  2.3628e-08  4.9028e-08  0:10:50 1516

  iter  continuity  x-velocity  y-velocity     time/iter
   485  6.1695e-05  2.3568e-08  4.8872e-08  0:08:40 1515
   486  6.1541e-05  2.3506e-08  4.8719e-08  0:11:58 1514
   487  6.1394e-05  2.3444e-08  4.8570e-08  0:09:34 1513
   488  6.1256e-05  2.3382e-08  4.8427e-08  0:12:42 1512
   489  6.1118e-05  2.3321e-08  4.8291e-08  0:10:09 1511
   490  6.0978e-05  2.3259e-08  4.8158e-08  0:13:09 1510
   491  6.0837e-05  2.3198e-08  4.8027e-08  0:10:31 1509
   492  6.0696e-05  2.3137e-08  4.7896e-08  0:13:26 1508
   493  6.0553e-05  2.3076e-08  4.7766e-08  0:10:44 1507
   494  6.0411e-05  2.3017e-08  4.7636e-08  0:13:36 1506
   495  6.0260e-05  2.2957e-08  4.7503e-08  0:10:53 1505

  iter  continuity  x-velocity  y-velocity     time/iter
   496  6.0108e-05  2.2898e-08  4.7370e-08  0:13:42 1504
   497  5.9957e-05  2.2838e-08  4.7236e-08  0:10:58 1503
   498  5.9807e-05  2.2780e-08  4.7103e-08  0:08:46 1502
   499  5.9656e-05  2.2722e-08  4.6972e-08  0:12:00 1501
   500  5.9506e-05  2.2665e-08  4.6842e-08  0:09:36 1500
   501  5.9357e-05  2.2608e-08  4.6713e-08  0:12:40 1499
   502  5.9209e-05  2.2553e-08  4.6585e-08  0:10:08 1498
   503  5.9062e-05  2.2499e-08  4.6458e-08  0:13:05 1497
   504  5.8918e-05  2.2445e-08  4.6333e-08  0:10:28 1496
   505  5.8778e-05  2.2391e-08  4.6210e-08  0:13:21 1495
   506  5.8639e-05  2.2338e-08  4.6089e-08  0:10:40 1494

  iter  continuity  x-velocity  y-velocity     time/iter
   507  5.8501e-05  2.2285e-08  4.5968e-08  0:13:31 1493
   508  5.8364e-05  2.2232e-08  4.5850e-08  0:10:48 1492
   509  5.8227e-05  2.2180e-08  4.5732e-08  0:08:38 1491
   510  5.8090e-05  2.2128e-08  4.5615e-08  0:11:52 1490
   511  5.7951e-05  2.2075e-08  4.5496e-08  0:09:29 1489
   512  5.7812e-05  2.2022e-08  4.5378e-08  0:12:33 1488
   513  5.7662e-05  2.1969e-08  4.5253e-08  0:10:02 1487
   514  5.7507e-05  2.1914e-08  4.5126e-08  0:12:58 1486
   515  5.7350e-05  2.1858e-08  4.4997e-08  0:10:22 1485
   516  5.7193e-05  2.1802e-08  4.4868e-08  0:13:14 1484
   517  5.7038e-05  2.1745e-08  4.4739e-08  0:10:35 1483

  iter  continuity  x-velocity  y-velocity     time/iter
   518  5.6885e-05  2.1688e-08  4.4610e-08  0:13:24 1482
   519  5.6735e-05  2.1631e-08  4.4483e-08  0:10:43 1481
   520  5.6585e-05  2.1574e-08  4.4356e-08  0:13:30 1480
   521  5.6435e-05  2.1517e-08  4.4230e-08  0:10:47 1479
   522  5.6288e-05  2.1460e-08  4.4105e-08  0:13:33 1478
   523  5.6145e-05  2.1403e-08  4.3981e-08  0:10:50 1477
   524  5.6004e-05  2.1346e-08  4.3859e-08  0:08:40 1476
   525  5.5865e-05  2.1289e-08  4.3737e-08  0:11:51 1475
   526  5.5728e-05  2.1233e-08  4.3616e-08  0:09:28 1474
   527  5.5589e-05  2.1176e-08  4.3495e-08  0:12:29 1473
   528  5.5453e-05  2.1118e-08  4.3379e-08  0:09:59 1472

  iter  continuity  x-velocity  y-velocity     time/iter
   529  5.5320e-05  2.1060e-08  4.3265e-08  0:12:53 1471
   530  5.5189e-05  2.1002e-08  4.3154e-08  0:10:18 1470
   531  5.5057e-05  2.0944e-08  4.3042e-08  0:13:08 1469
   532  5.4922e-05  2.0886e-08  4.2931e-08  0:10:30 1468
   533  5.4789e-05  2.0830e-08  4.2820e-08  0:08:23 1467
   534  5.4658e-05  2.0774e-08  4.2710e-08  0:11:36 1466
   535  5.4527e-05  2.0719e-08  4.2599e-08  0:09:16 1465
   536  5.4398e-05  2.0667e-08  4.2489e-08  0:12:17 1464
   537  5.4270e-05  2.0615e-08  4.2380e-08  0:09:50 1463
   538  5.4142e-05  2.0565e-08  4.2271e-08  0:12:44 1462
   539  5.4014e-05  2.0515e-08  4.2162e-08  0:10:11 1461

  iter  continuity  x-velocity  y-velocity     time/iter
   540  5.3886e-05  2.0466e-08  4.2055e-08  0:13:00 1460
   541  5.3758e-05  2.0418e-08  4.1947e-08  0:10:24 1459
   542  5.3631e-05  2.0369e-08  4.1841e-08  0:08:19 1458
   543  5.3503e-05  2.0320e-08  4.1735e-08  0:11:30 1457
   544  5.3375e-05  2.0271e-08  4.1629e-08  0:09:12 1456
   545  5.3247e-05  2.0222e-08  4.1524e-08  0:12:12 1455
   546  5.3119e-05  2.0173e-08  4.1420e-08  0:09:45 1454
   547  5.2991e-05  2.0124e-08  4.1317e-08  0:12:38 1453
   548  5.2863e-05  2.0075e-08  4.1214e-08  0:10:06 1452
   549  5.2736e-05  2.0026e-08  4.1112e-08  0:12:55 1451
   550  5.2608e-05  1.9977e-08  4.1009e-08  0:10:20 1450

  iter  continuity  x-velocity  y-velocity     time/iter
   551  5.2482e-05  1.9928e-08  4.0907e-08  0:13:05 1449
   552  5.2356e-05  1.9879e-08  4.0804e-08  0:10:28 1448
   553  5.2230e-05  1.9830e-08  4.0701e-08  0:08:22 1447
   554  5.2105e-05  1.9781e-08  4.0599e-08  0:11:30 1446
   555  5.1980e-05  1.9732e-08  4.0497e-08  0:09:12 1445
   556  5.1856e-05  1.9684e-08  4.0394e-08  0:12:10 1444
   557  5.1732e-05  1.9635e-08  4.0288e-08  0:09:44 1443
   558  5.1610e-05  1.9588e-08  4.0180e-08  0:12:35 1442
   559  5.1488e-05  1.9539e-08  4.0074e-08  0:10:04 1441
   560  5.1367e-05  1.9490e-08  3.9969e-08  0:12:50 1440
   561  5.1246e-05  1.9442e-08  3.9863e-08  0:10:16 1439

  iter  continuity  x-velocity  y-velocity     time/iter
   562  5.1126e-05  1.9394e-08  3.9759e-08  0:13:00 1438
   563  5.1007e-05  1.9347e-08  3.9657e-08  0:10:24 1437
   564  5.0889e-05  1.9300e-08  3.9556e-08  0:08:19 1436
   565  5.0771e-05  1.9254e-08  3.9457e-08  0:11:26 1435
   566  5.0653e-05  1.9208e-08  3.9358e-08  0:09:08 1434
   567  5.0535e-05  1.9164e-08  3.9260e-08  0:12:05 1433
   568  5.0417e-05  1.9119e-08  3.9163e-08  0:14:26 1432
   569  5.0299e-05  1.9075e-08  3.9067e-08  0:11:32 1431
   570  5.0182e-05  1.9031e-08  3.8971e-08  0:09:13 1430
   571  5.0065e-05  1.8986e-08  3.8877e-08  0:12:08 1429
   572  4.9948e-05  1.8942e-08  3.8783e-08  0:09:42 1428

  iter  continuity  x-velocity  y-velocity     time/iter
   573  4.9833e-05  1.8899e-08  3.8690e-08  0:12:31 1427
   574  4.9718e-05  1.8855e-08  3.8598e-08  0:10:00 1426
   575  4.9604e-05  1.8811e-08  3.8507e-08  0:12:45 1425
   576  4.9493e-05  1.8768e-08  3.8416e-08  0:10:11 1424
   577  4.9382e-05  1.8724e-08  3.8326e-08  0:12:53 1423
   578  4.9271e-05  1.8681e-08  3.8236e-08  0:10:18 1422
   579  4.9161e-05  1.8639e-08  3.8146e-08  0:08:14 1421
   580  4.9051e-05  1.8596e-08  3.8056e-08  0:11:19 1420
   581  4.8942e-05  1.8553e-08  3.7966e-08  0:09:03 1419
   582  4.8829e-05  1.8511e-08  3.7874e-08  0:11:58 1418
   583  4.8714e-05  1.8468e-08  3.7781e-08  0:09:34 1417

  iter  continuity  x-velocity  y-velocity     time/iter
   584  4.8597e-05  1.8426e-08  3.7686e-08  0:12:22 1416
   585  4.8481e-05  1.8383e-08  3.7592e-08  0:09:53 1415
   586  4.8367e-05  1.8341e-08  3.7498e-08  0:12:37 1414
   587  4.8255e-05  1.8299e-08  3.7406e-08  0:10:05 1413
   588  4.8143e-05  1.8256e-08  3.7314e-08  0:12:46 1412
   589  4.8032e-05  1.8214e-08  3.7223e-08  0:10:12 1411
   590  4.7922e-05  1.8172e-08  3.7133e-08  0:08:10 1410
   591  4.7813e-05  1.8130e-08  3.7045e-08  0:11:13 1409
   592  4.7705e-05  1.8088e-08  3.6957e-08  0:08:58 1408
   593  4.7597e-05  1.8047e-08  3.6869e-08  0:11:52 1407
   594  4.7490e-05  1.8005e-08  3.6782e-08  0:09:29 1406

  iter  continuity  x-velocity  y-velocity     time/iter
   595  4.7382e-05  1.7965e-08  3.6694e-08  0:12:16 1405
   596  4.7275e-05  1.7924e-08  3.6607e-08  0:09:48 1404
   597  4.7168e-05  1.7883e-08  3.6520e-08  0:12:31 1403
   598  4.7062e-05  1.7842e-08  3.6433e-08  0:10:00 1402
   599  4.6956e-05  1.7801e-08  3.6346e-08  0:08:00 1401
   600  4.6851e-05  1.7759e-08  3.6260e-08  0:11:04 1400
   601  4.6746e-05  1.7718e-08  3.6174e-08  0:08:51 1399
   602  4.6642e-05  1.7677e-08  3.6088e-08  0:11:44 1398
   603  4.6538e-05  1.7637e-08  3.6001e-08  0:09:23 1397
   604  4.6434e-05  1.7596e-08  3.5916e-08  0:12:09 1396
   605  4.6332e-05  1.7556e-08  3.5830e-08  0:09:43 1395

  iter  continuity  x-velocity  y-velocity     time/iter
   606  4.6229e-05  1.7515e-08  3.5744e-08  0:12:25 1394
   607  4.6125e-05  1.7475e-08  3.5657e-08  0:09:55 1393
   608  4.6021e-05  1.7434e-08  3.5569e-08  0:07:56 1392
   609  4.5918e-05  1.7393e-08  3.5481e-08  0:10:59 1391
   610  4.5817e-05  1.7353e-08  3.5394e-08  0:08:47 1390
   611  4.5716e-05  1.7312e-08  3.5308e-08  0:11:39 1389
   612  4.5615e-05  1.7272e-08  3.5224e-08  0:09:19 1388
   613  4.5516e-05  1.7232e-08  3.5140e-08  0:12:04 1387
   614  4.5416e-05  1.7192e-08  3.5056e-08  0:09:39 1386
   615  4.5316e-05  1.7152e-08  3.4973e-08  0:12:20 1385
   616  4.5218e-05  1.7113e-08  3.4891e-08  0:09:51 1384

  iter  continuity  x-velocity  y-velocity     time/iter
   617  4.5120e-05  1.7074e-08  3.4809e-08  0:12:29 1383
   618  4.5022e-05  1.7035e-08  3.4728e-08  0:09:59 1382
   619  4.4923e-05  1.6996e-08  3.4646e-08  0:12:35 1381
   620  4.4825e-05  1.6957e-08  3.4565e-08  0:10:04 1380
   621  4.4727e-05  1.6918e-08  3.4484e-08  0:12:38 1379
   622  4.4629e-05  1.6880e-08  3.4404e-08  0:10:06 1378
   623  4.4530e-05  1.6841e-08  3.4323e-08  0:12:40 1377
   624  4.4432e-05  1.6803e-08  3.4243e-08  0:10:08 1376
   625  4.4334e-05  1.6764e-08  3.4162e-08  0:08:06 1375
   626  4.4237e-05  1.6726e-08  3.4082e-08  0:11:03 1374
   627  4.4141e-05  1.6688e-08  3.4002e-08  0:08:50 1373

  iter  continuity  x-velocity  y-velocity     time/iter
   628  4.4045e-05  1.6650e-08  3.3920e-08  0:11:38 1372
   629  4.3951e-05  1.6612e-08  3.3839e-08  0:09:18 1371
   630  4.3859e-05  1.6574e-08  3.3758e-08  0:12:00 1370
   631  4.3761e-05  1.6537e-08  3.3676e-08  0:09:36 1369
   632  4.3662e-05  1.6499e-08  3.3594e-08  0:12:14 1368
   633  4.3565e-05  1.6460e-08  3.3514e-08  0:09:47 1367
   634  4.3470e-05  1.6422e-08  3.3435e-08  0:07:49 1366
   635  4.3377e-05  1.6384e-08  3.3356e-08  0:10:48 1365
   636  4.3285e-05  1.6346e-08  3.3278e-08  0:08:38 1364
   637  4.3194e-05  1.6309e-08  3.3201e-08  0:11:27 1363
   638  4.3104e-05  1.6272e-08  3.3124e-08  0:09:09 1362

  iter  continuity  x-velocity  y-velocity     time/iter
   639  4.3013e-05  1.6234e-08  3.3046e-08  0:11:51 1361
   640  4.2922e-05  1.6197e-08  3.2970e-08  0:09:28 1360
   641  4.2830e-05  1.6160e-08  3.2893e-08  0:12:06 1359
   642  4.2738e-05  1.6123e-08  3.2816e-08  0:09:41 1358
   643  4.2646e-05  1.6086e-08  3.2740e-08  0:07:44 1357
   644  4.2554e-05  1.6049e-08  3.2664e-08  0:10:42 1356
   645  4.2463e-05  1.6012e-08  3.2589e-08  0:08:33 1355
   646  4.2371e-05  1.5975e-08  3.2514e-08  0:11:21 1354
   647  4.2280e-05  1.5939e-08  3.2439e-08  0:09:05 1353
   648  4.2189e-05  1.5902e-08  3.2364e-08  0:11:46 1352
   649  4.2098e-05  1.5866e-08  3.2290e-08  0:09:24 1351

  iter  continuity  x-velocity  y-velocity     time/iter
   650  4.2008e-05  1.5830e-08  3.2216e-08  0:12:01 1350
   651  4.1917e-05  1.5794e-08  3.2142e-08  0:09:36 1349
   652  4.1826e-05  1.5758e-08  3.2068e-08  0:07:41 1348
   653  4.1735e-05  1.5722e-08  3.1993e-08  0:10:38 1347
   654  4.1644e-05  1.5686e-08  3.1919e-08  0:08:30 1346
   655  4.1553e-05  1.5649e-08  3.1847e-08  0:11:17 1345
   656  4.1463e-05  1.5613e-08  3.1774e-08  0:09:01 1344
   657  4.1373e-05  1.5578e-08  3.1703e-08  0:11:41 1343
   658  4.1283e-05  1.5542e-08  3.1631e-08  0:09:20 1342
   659  4.1195e-05  1.5507e-08  3.1560e-08  0:11:56 1341
   660  4.1106e-05  1.5472e-08  3.1488e-08  0:09:32 1340

  iter  continuity  x-velocity  y-velocity     time/iter
   661  4.1020e-05  1.5437e-08  3.1415e-08  0:12:05 1339
   662  4.0934e-05  1.5402e-08  3.1342e-08  0:09:40 1338
   663  4.0848e-05  1.5367e-08  3.1269e-08  0:07:44 1337
   664  4.0761e-05  1.5333e-08  3.1195e-08  0:10:38 1336
   665  4.0674e-05  1.5298e-08  3.1121e-08  0:12:57 1335
   666  4.0590e-05  1.5263e-08  3.1048e-08  0:10:21 1334
   667  4.0506e-05  1.5229e-08  3.0975e-08  0:12:43 1333
   668  4.0422e-05  1.5196e-08  3.0902e-08  0:10:10 1332
   669  4.0337e-05  1.5162e-08  3.0830e-08  0:08:08 1331
   670  4.0252e-05  1.5128e-08  3.0760e-08  0:10:56 1330
   671  4.0168e-05  1.5095e-08  3.0691e-08  0:08:44 1329

  iter  continuity  x-velocity  y-velocity     time/iter
   672  4.0086e-05  1.5062e-08  3.0622e-08  0:11:25 1328
   673  4.0007e-05  1.5030e-08  3.0554e-08  0:09:07 1327
   674  3.9930e-05  1.4998e-08  3.0490e-08  0:11:43 1326
   675  3.9857e-05  1.4968e-08  3.0428e-08  0:09:22 1325
   676  3.9785e-05  1.4940e-08  3.0367e-08  0:11:54 1324
   677  3.9714e-05  1.4912e-08  3.0305e-08  0:09:31 1323
   678  3.9645e-05  1.4884e-08  3.0245e-08  0:12:01 1322
   679  3.9575e-05  1.4856e-08  3.0185e-08  0:09:36 1321
   680  3.9508e-05  1.4829e-08  3.0124e-08  0:07:40 1320
   681  3.9441e-05  1.4801e-08  3.0061e-08  0:10:32 1319
   682  3.9373e-05  1.4772e-08  2.9998e-08  0:08:25 1318

  iter  continuity  x-velocity  y-velocity     time/iter
   683  3.9304e-05  1.4743e-08  2.9938e-08  0:11:07 1317
   684  3.9232e-05  1.4713e-08  2.9876e-08  0:08:53 1316
   685  3.9155e-05  1.4683e-08  2.9814e-08  0:11:29 1315
   686  3.9077e-05  1.4652e-08  2.9750e-08  0:09:11 1314
   687  3.8997e-05  1.4622e-08  2.9684e-08  0:11:43 1313
   688  3.8918e-05  1.4591e-08  2.9617e-08  0:09:22 1312
   689  3.8837e-05  1.4561e-08  2.9550e-08  0:11:52 1311
   690  3.8755e-05  1.4531e-08  2.9482e-08  0:09:29 1310
   691  3.8672e-05  1.4500e-08  2.9414e-08  0:07:35 1309
   692  3.8590e-05  1.4469e-08  2.9346e-08  0:10:25 1308
   693  3.8508e-05  1.4438e-08  2.9278e-08  0:08:20 1307

  iter  continuity  x-velocity  y-velocity     time/iter
   694  3.8428e-05  1.4407e-08  2.9210e-08  0:11:01 1306
   695  3.8347e-05  1.4377e-08  2.9143e-08  0:08:48 1305
   696  3.8267e-05  1.4346e-08  2.9076e-08  0:11:23 1304
   697  3.8188e-05  1.4316e-08  2.9010e-08  0:09:06 1303
   698  3.8110e-05  1.4286e-08  2.8944e-08  0:11:37 1302
   699  3.8032e-05  1.4257e-08  2.8879e-08  0:09:17 1301
   700  3.7955e-05  1.4228e-08  2.8815e-08  0:11:45 1300
   701  3.7878e-05  1.4199e-08  2.8752e-08  0:09:24 1299
   702  3.7801e-05  1.4170e-08  2.8689e-08  0:07:31 1298
   703  3.7726e-05  1.4142e-08  2.8628e-08  0:10:20 1297
   704  3.7651e-05  1.4114e-08  2.8566e-08  0:08:15 1296

  iter  continuity  x-velocity  y-velocity     time/iter
   705  3.7578e-05  1.4087e-08  2.8505e-08  0:10:55 1295
   706  3.7504e-05  1.4059e-08  2.8446e-08  0:08:44 1294
   707  3.7431e-05  1.4032e-08  2.8387e-08  0:11:17 1293
   708  3.7359e-05  1.4004e-08  2.8330e-08  0:09:01 1292
   709  3.7288e-05  1.3977e-08  2.8272e-08  0:11:31 1291
   710  3.7216e-05  1.3950e-08  2.8215e-08  0:09:12 1290
   711  3.7146e-05  1.3924e-08  2.8158e-08  0:11:39 1289
   712  3.7076e-05  1.3897e-08  2.8101e-08  0:09:19 1288
   713  3.7007e-05  1.3871e-08  2.8045e-08  0:07:27 1287
   714  3.6938e-05  1.3844e-08  2.7990e-08  0:10:14 1286
   715  3.6870e-05  1.3818e-08  2.7934e-08  0:12:28 1285

  iter  continuity  x-velocity  y-velocity     time/iter
   716  3.6801e-05  1.3792e-08  2.7880e-08  0:09:58 1284
   717  3.6734e-05  1.3767e-08  2.7826e-08  0:12:15 1283
   718  3.6666e-05  1.3741e-08  2.7773e-08  0:09:47 1282
   719  3.6598e-05  1.3716e-08  2.7719e-08  0:12:06 1281
   720  3.6529e-05  1.3690e-08  2.7666e-08  0:09:40 1280
   721  3.6461e-05  1.3665e-08  2.7614e-08  0:07:44 1279
   722  3.6393e-05  1.3640e-08  2.7561e-08  0:10:26 1278
   723  3.6326e-05  1.3616e-08  2.7508e-08  0:08:21 1277
   724  3.6261e-05  1.3591e-08  2.7455e-08  0:10:55 1276
   725  3.6195e-05  1.3567e-08  2.7403e-08  0:08:44 1275
   726  3.6130e-05  1.3544e-08  2.7351e-08  0:11:14 1274

  iter  continuity  x-velocity  y-velocity     time/iter
   727  3.6065e-05  1.3520e-08  2.7300e-08  0:08:58 1273
   728  3.6001e-05  1.3497e-08  2.7249e-08  0:11:25 1272
   729  3.5937e-05  1.3474e-08  2.7199e-08  0:09:07 1271
   730  3.5874e-05  1.3450e-08  2.7149e-08  0:07:18 1270
   731  3.5811e-05  1.3427e-08  2.7098e-08  0:10:04 1269
   732  3.5749e-05  1.3404e-08  2.7049e-08  0:08:02 1268
   733  3.5688e-05  1.3380e-08  2.7000e-08  0:10:39 1267
   734  3.5626e-05  1.3357e-08  2.6951e-08  0:08:31 1266
   735  3.5564e-05  1.3333e-08  2.6902e-08  0:11:01 1265
   736  3.5503e-05  1.3310e-08  2.6854e-08  0:08:49 1264
   737  3.5441e-05  1.3286e-08  2.6805e-08  0:11:15 1263

  iter  continuity  x-velocity  y-velocity     time/iter
   738  3.5379e-05  1.3263e-08  2.6756e-08  0:09:00 1262
   739  3.5317e-05  1.3239e-08  2.6707e-08  0:11:24 1261
   740  3.5254e-05  1.3216e-08  2.6657e-08  0:09:06 1260
   741  3.5192e-05  1.3191e-08  2.6608e-08  0:07:17 1259
   742  3.5129e-05  1.3167e-08  2.6557e-08  0:10:01 1258
   743  3.5066e-05  1.3143e-08  2.6506e-08  0:08:00 1257
   744  3.5003e-05  1.3119e-08  2.6456e-08  0:10:35 1256
   745  3.4940e-05  1.3095e-08  2.6405e-08  0:08:28 1255
   746  3.4876e-05  1.3071e-08  2.6354e-08  0:10:57 1254
   747  3.4813e-05  1.3047e-08  2.6302e-08  0:08:45 1253
   748  3.4749e-05  1.3023e-08  2.6251e-08  0:11:10 1252

  iter  continuity  x-velocity  y-velocity     time/iter
   749  3.4685e-05  1.2999e-08  2.6199e-08  0:08:56 1251
   750  3.4621e-05  1.2975e-08  2.6146e-08  0:07:08 1250
   751  3.4556e-05  1.2951e-08  2.6094e-08  0:09:52 1249
   752  3.4492e-05  1.2926e-08  2.6041e-08  0:07:53 1248
   753  3.4427e-05  1.2901e-08  2.5988e-08  0:10:28 1247
   754  3.4363e-05  1.2877e-08  2.5935e-08  0:08:22 1246
   755  3.4298e-05  1.2852e-08  2.5882e-08  0:10:50 1245
   756  3.4232e-05  1.2827e-08  2.5829e-08  0:08:40 1244
   757  3.4167e-05  1.2802e-08  2.5775e-08  0:11:04 1243
   758  3.4102e-05  1.2777e-08  2.5721e-08  0:08:51 1242
   759  3.4037e-05  1.2752e-08  2.5666e-08  0:07:04 1241

  iter  continuity  x-velocity  y-velocity     time/iter
   760  3.3971e-05  1.2726e-08  2.5612e-08  0:09:47 1240
   761  3.3905e-05  1.2701e-08  2.5557e-08  0:07:49 1239
   762  3.3839e-05  1.2675e-08  2.5502e-08  0:10:23 1238
   763  3.3773e-05  1.2649e-08  2.5447e-08  0:12:25 1237
   764  3.3707e-05  1.2624e-08  2.5391e-08  0:09:56 1236
   765  3.3641e-05  1.2598e-08  2.5336e-08  0:07:56 1235
   766  3.3575e-05  1.2572e-08  2.5280e-08  0:10:27 1234
   767  3.3508e-05  1.2546e-08  2.5224e-08  0:08:22 1233
   768  3.3442e-05  1.2520e-08  2.5168e-08  0:10:47 1232
   769  3.3376e-05  1.2494e-08  2.5112e-08  0:08:37 1231
   770  3.3309e-05  1.2468e-08  2.5056e-08  0:11:00 1230

  iter  continuity  x-velocity  y-velocity     time/iter
   771  3.3243e-05  1.2442e-08  2.4999e-08  0:08:47 1229
   772  3.3176e-05  1.2416e-08  2.4943e-08  0:11:07 1228
   773  3.3110e-05  1.2390e-08  2.4887e-08  0:08:53 1227
   774  3.3044e-05  1.2364e-08  2.4831e-08  0:11:11 1226
   775  3.2978e-05  1.2339e-08  2.4775e-08  0:08:57 1225
   776  3.2912e-05  1.2313e-08  2.4719e-08  0:11:14 1224
   777  3.2846e-05  1.2287e-08  2.4663e-08  0:08:59 1223
   778  3.2781e-05  1.2261e-08  2.4607e-08  0:07:11 1222
   779  3.2715e-05  1.2235e-08  2.4552e-08  0:09:48 1221
   780  3.2650e-05  1.2209e-08  2.4496e-08  0:07:50 1220
   781  3.2585e-05  1.2184e-08  2.4440e-08  0:10:20 1219

  iter  continuity  x-velocity  y-velocity     time/iter
   782  3.2520e-05  1.2158e-08  2.4384e-08  0:08:15 1218
   783  3.2456e-05  1.2133e-08  2.4328e-08  0:10:39 1217
   784  3.2391e-05  1.2107e-08  2.4272e-08  0:08:31 1216
   785  3.2326e-05  1.2081e-08  2.4217e-08  0:10:52 1215
   786  3.2262e-05  1.2056e-08  2.4162e-08  0:08:41 1214
   787  3.2198e-05  1.2030e-08  2.4107e-08  0:06:56 1213
   788  3.2134e-05  1.2004e-08  2.4053e-08  0:09:35 1212
   789  3.2070e-05  1.1979e-08  2.3998e-08  0:07:40 1211
   790  3.2006e-05  1.1953e-08  2.3943e-08  0:10:09 1210
   791  3.1941e-05  1.1928e-08  2.3889e-08  0:08:07 1209
   792  3.1877e-05  1.1902e-08  2.3834e-08  0:10:31 1208

  iter  continuity  x-velocity  y-velocity     time/iter
   793  3.1812e-05  1.1876e-08  2.3779e-08  0:08:24 1207
   794  3.1747e-05  1.1851e-08  2.3725e-08  0:10:44 1206
   795  3.1682e-05  1.1826e-08  2.3670e-08  0:08:35 1205
   796  3.1616e-05  1.1800e-08  2.3616e-08  0:06:52 1204
   797  3.1551e-05  1.1775e-08  2.3562e-08  0:09:30 1203
   798  3.1486e-05  1.1749e-08  2.3508e-08  0:07:35 1202
   799  3.1421e-05  1.1725e-08  2.3454e-08  0:10:04 1201
   800  3.1357e-05  1.1700e-08  2.3400e-08  0:08:03 1200
   801  3.1293e-05  1.1675e-08  2.3347e-08  0:10:26 1199
   802  3.1230e-05  1.1651e-08  2.3294e-08  0:08:20 1198
   803  3.1166e-05  1.1626e-08  2.3242e-08  0:10:39 1197

  iter  continuity  x-velocity  y-velocity     time/iter
   804  3.1103e-05  1.1602e-08  2.3190e-08  0:08:31 1196
   805  3.1041e-05  1.1578e-08  2.3138e-08  0:10:47 1195
   806  3.0978e-05  1.1554e-08  2.3087e-08  0:08:38 1194
   807  3.0916e-05  1.1529e-08  2.3037e-08  0:06:54 1193
   808  3.0853e-05  1.1505e-08  2.2985e-08  0:09:29 1192
   809  3.0790e-05  1.1481e-08  2.2932e-08  0:07:35 1191
   810  3.0728e-05  1.1457e-08  2.2879e-08  0:10:02 1190
   811  3.0667e-05  1.1433e-08  2.2826e-08  0:11:59 1189
   812  3.0606e-05  1.1409e-08  2.2773e-08  0:09:34 1188
   813  3.0545e-05  1.1385e-08  2.2721e-08  0:07:39 1187
   814  3.0485e-05  1.1362e-08  2.2669e-08  0:10:04 1186

  iter  continuity  x-velocity  y-velocity     time/iter
   815  3.0424e-05  1.1338e-08  2.2618e-08  0:08:03 1185
   816  3.0364e-05  1.1315e-08  2.2568e-08  0:10:23 1184
   817  3.0303e-05  1.1291e-08  2.2518e-08  0:08:18 1183
   818  3.0243e-05  1.1269e-08  2.2468e-08  0:10:34 1182
   819  3.0182e-05  1.1246e-08  2.2419e-08  0:08:27 1181
   820  3.0122e-05  1.1223e-08  2.2369e-08  0:10:41 1180
   821  3.0062e-05  1.1200e-08  2.2321e-08  0:08:33 1179
   822  3.0002e-05  1.1178e-08  2.2273e-08  0:06:50 1178
   823  2.9942e-05  1.1156e-08  2.2225e-08  0:09:23 1177
   824  2.9882e-05  1.1133e-08  2.2178e-08  0:07:30 1176
   825  2.9824e-05  1.1111e-08  2.2131e-08  0:09:55 1175

  iter  continuity  x-velocity  y-velocity     time/iter
   826  2.9765e-05  1.1089e-08  2.2084e-08  0:07:55 1174
   827  2.9706e-05  1.1067e-08  2.2037e-08  0:10:15 1173
   828  2.9648e-05  1.1045e-08  2.1991e-08  0:08:11 1172
   829  2.9589e-05  1.1023e-08  2.1944e-08  0:10:27 1171
   830  2.9531e-05  1.1001e-08  2.1898e-08  0:08:21 1170
   831  2.9473e-05  1.0979e-08  2.1852e-08  0:06:40 1169
   832  2.9416e-05  1.0958e-08  2.1806e-08  0:09:14 1168
   833  2.9359e-05  1.0936e-08  2.1760e-08  0:07:23 1167
   834  2.9302e-05  1.0915e-08  2.1715e-08  0:09:47 1166
   835  2.9245e-05  1.0894e-08  2.1669e-08  0:07:49 1165
   836  2.9189e-05  1.0872e-08  2.1624e-08  0:10:08 1164

  iter  continuity  x-velocity  y-velocity     time/iter
   837  2.9133e-05  1.0851e-08  2.1580e-08  0:08:06 1163
   838  2.9077e-05  1.0830e-08  2.1535e-08  0:10:21 1162
   839  2.9021e-05  1.0809e-08  2.1491e-08  0:08:16 1161
   840  2.8966e-05  1.0788e-08  2.1446e-08  0:06:37 1160
   841  2.8910e-05  1.0767e-08  2.1402e-08  0:09:09 1159
   842  2.8855e-05  1.0747e-08  2.1358e-08  0:07:19 1158
   843  2.8800e-05  1.0726e-08  2.1314e-08  0:09:42 1157
   844  2.8746e-05  1.0706e-08  2.1271e-08  0:07:45 1156
   845  2.8691e-05  1.0685e-08  2.1227e-08  0:10:03 1155
   846  2.8637e-05  1.0665e-08  2.1184e-08  0:08:02 1154
   847  2.8582e-05  1.0645e-08  2.1141e-08  0:10:16 1153

  iter  continuity  x-velocity  y-velocity     time/iter
   848  2.8528e-05  1.0624e-08  2.1098e-08  0:08:12 1152
   849  2.8474e-05  1.0604e-08  2.1055e-08  0:10:24 1151
   850  2.8421e-05  1.0584e-08  2.1012e-08  0:08:18 1150
   851  2.8367e-05  1.0564e-08  2.0970e-08  0:06:38 1149
   852  2.8314e-05  1.0544e-08  2.0927e-08  0:09:08 1148
   853  2.8261e-05  1.0524e-08  2.0885e-08  0:07:18 1147
   854  2.8208e-05  1.0504e-08  2.0843e-08  0:09:39 1146
   855  2.8156e-05  1.0484e-08  2.0801e-08  0:07:43 1145
   856  2.8103e-05  1.0465e-08  2.0759e-08  0:09:59 1144
   857  2.8051e-05  1.0445e-08  2.0718e-08  0:07:59 1143
   858  2.7998e-05  1.0425e-08  2.0676e-08  0:10:11 1142

  iter  continuity  x-velocity  y-velocity     time/iter
   859  2.7946e-05  1.0406e-08  2.0635e-08  0:08:08 1141
   860  2.7894e-05  1.0386e-08  2.0594e-08  0:10:18 1140
   861  2.7841e-05  1.0367e-08  2.0553e-08  0:08:14 1139
   862  2.7789e-05  1.0347e-08  2.0512e-08  0:10:23 1138
   863  2.7738e-05  1.0328e-08  2.0471e-08  0:08:18 1137
   864  2.7687e-05  1.0309e-08  2.0430e-08  0:10:25 1136
   865  2.7635e-05  1.0289e-08  2.0389e-08  0:08:20 1135
   866  2.7584e-05  1.0270e-08  2.0349e-08  0:06:39 1134
   867  2.7534e-05  1.0251e-08  2.0308e-08  0:09:06 1133
   868  2.7483e-05  1.0232e-08  2.0268e-08  0:07:16 1132
   869  2.7433e-05  1.0213e-08  2.0229e-08  0:09:35 1131

  iter  continuity  x-velocity  y-velocity     time/iter
   870  2.7382e-05  1.0194e-08  2.0189e-08  0:07:39 1130
   871  2.7332e-05  1.0176e-08  2.0150e-08  0:09:53 1129
   872  2.7282e-05  1.0157e-08  2.0110e-08  0:07:54 1128
   873  2.7233e-05  1.0139e-08  2.0071e-08  0:10:04 1127
   874  2.7183e-05  1.0120e-08  2.0032e-08  0:08:03 1126
   875  2.7134e-05  1.0102e-08  1.9993e-08  0:06:26 1125
   876  2.7084e-05  1.0084e-08  1.9955e-08  0:08:53 1124
   877  2.7035e-05  1.0066e-08  1.9916e-08  0:07:06 1123
   878  2.6985e-05  1.0048e-08  1.9878e-08  0:09:25 1122
   879  2.6936e-05  1.0030e-08  1.9839e-08  0:07:32 1121
   880  2.6886e-05  1.0012e-08  1.9801e-08  0:09:45 1120

  iter  continuity  x-velocity  y-velocity     time/iter
   881  2.6837e-05  9.9938e-09  1.9763e-08  0:07:48 1119
   882  2.6787e-05  9.9759e-09  1.9725e-08  0:09:57 1118
   883  2.6738e-05  9.9582e-09  1.9687e-08  0:07:57 1117
   884  2.6688e-05  9.9404e-09  1.9649e-08  0:10:05 1116
   885  2.6639e-05  9.9227e-09  1.9612e-08  0:08:03 1115
   886  2.6590e-05  9.9049e-09  1.9575e-08  0:06:26 1114
   887  2.6541e-05  9.8872e-09  1.9537e-08  0:08:51 1113
   888  2.6493e-05  9.8695e-09  1.9498e-08  0:07:05 1112
   889  2.6444e-05  9.8516e-09  1.9460e-08  0:09:22 1111
   890  2.6395e-05  9.8337e-09  1.9421e-08  0:07:29 1110
   891  2.6347e-05  9.8157e-09  1.9382e-08  0:09:41 1109

  iter  continuity  x-velocity  y-velocity     time/iter
   892  2.6299e-05  9.7977e-09  1.9344e-08  0:07:44 1108
   893  2.6251e-05  9.7797e-09  1.9305e-08  0:09:52 1107
   894  2.6204e-05  9.7617e-09  1.9267e-08  0:07:53 1106
   895  2.6157e-05  9.7437e-09  1.9229e-08  0:06:18 1105
   896  2.6109e-05  9.7257e-09  1.9190e-08  0:08:43 1104
   897  2.6062e-05  9.7077e-09  1.9152e-08  0:06:58 1103
   898  2.6015e-05  9.6897e-09  1.9114e-08  0:09:15 1102
   899  2.5968e-05  9.6717e-09  1.9076e-08  0:07:23 1101
   900  2.5921e-05  9.6537e-09  1.9037e-08  0:09:34 1100
   901  2.5874e-05  9.6356e-09  1.8999e-08  0:07:39 1099
   902  2.5827e-05  9.6177e-09  1.8961e-08  0:09:47 1098

  iter  continuity  x-velocity  y-velocity     time/iter
   903  2.5780e-05  9.5997e-09  1.8924e-08  0:07:49 1097
   904  2.5733e-05  9.5818e-09  1.8886e-08  0:09:54 1096
   905  2.5686e-05  9.5639e-09  1.8849e-08  0:07:55 1095
   906  2.5639e-05  9.5460e-09  1.8811e-08  0:06:19 1094
   907  2.5592e-05  9.5283e-09  1.8774e-08  0:08:42 1093
   908  2.5545e-05  9.5105e-09  1.8737e-08  0:10:35 1092
   909  2.5498e-05  9.4931e-09  1.8699e-08  0:08:28 1091
   910  2.5451e-05  9.4757e-09  1.8662e-08  0:10:24 1090
   911  2.5405e-05  9.4582e-09  1.8625e-08  0:08:19 1089
   912  2.5359e-05  9.4405e-09  1.8589e-08  0:06:39 1088
   913  2.5312e-05  9.4228e-09  1.8552e-08  0:08:56 1087

  iter  continuity  x-velocity  y-velocity     time/iter
   914  2.5266e-05  9.4052e-09  1.8515e-08  0:07:08 1086
   915  2.5220e-05  9.3877e-09  1.8479e-08  0:09:19 1085
   916  2.5175e-05  9.3703e-09  1.8442e-08  0:07:27 1084
   917  2.5129e-05  9.3529e-09  1.8406e-08  0:09:34 1083
   918  2.5084e-05  9.3355e-09  1.8370e-08  0:07:39 1082
   919  2.5039e-05  9.3182e-09  1.8334e-08  0:09:43 1081
   920  2.4994e-05  9.3009e-09  1.8297e-08  0:07:46 1080
   921  2.4948e-05  9.2836e-09  1.8261e-08  0:09:48 1079
   922  2.4903e-05  9.2663e-09  1.8225e-08  0:07:50 1078
   923  2.4858e-05  9.2490e-09  1.8189e-08  0:06:16 1077
   924  2.4814e-05  9.2318e-09  1.8154e-08  0:08:35 1076

  iter  continuity  x-velocity  y-velocity     time/iter
   925  2.4770e-05  9.2149e-09  1.8119e-08  0:06:52 1075
   926  2.4726e-05  9.1980e-09  1.8085e-08  0:09:04 1074
   927  2.4683e-05  9.1812e-09  1.8050e-08  0:07:15 1073
   928  2.4640e-05  9.1645e-09  1.8016e-08  0:09:22 1072
   929  2.4598e-05  9.1479e-09  1.7981e-08  0:07:29 1071
   930  2.4555e-05  9.1313e-09  1.7947e-08  0:05:59 1070
   931  2.4513e-05  9.1147e-09  1.7914e-08  0:08:21 1069
   932  2.4471e-05  9.0982e-09  1.7880e-08  0:06:40 1068
   933  2.4429e-05  9.0817e-09  1.7846e-08  0:05:20 1067
   934  2.4387e-05  9.0653e-09  1.7812e-08  0:04:16 1066
   935  2.4345e-05  9.0490e-09  1.7779e-08  0:06:57 1065

  iter  continuity  x-velocity  y-velocity     time/iter
   936  2.4303e-05  9.0327e-09  1.7745e-08  0:05:34 1064
   937  2.4261e-05  9.0166e-09  1.7712e-08  0:04:27 1063
   938  2.4220e-05  9.0007e-09  1.7679e-08  0:03:33 1062
   939  2.4178e-05  8.9849e-09  1.7645e-08  0:06:22 1061
   940  2.4138e-05  8.9694e-09  1.7612e-08  0:05:06 1060
   941  2.4097e-05  8.9540e-09  1.7580e-08  0:04:04 1059
   942  2.4057e-05  8.9387e-09  1.7548e-08  0:03:15 1058
   943  2.4018e-05  8.9235e-09  1.7516e-08  0:06:07 1057
   944  2.3979e-05  8.9085e-09  1.7485e-08  0:04:54 1056
   945  2.3940e-05  8.8935e-09  1.7453e-08  0:03:55 1055
   946  2.3902e-05  8.8787e-09  1.7422e-08  0:03:08 1054

  iter  continuity  x-velocity  y-velocity     time/iter
   947  2.3863e-05  8.8640e-09  1.7391e-08  0:02:30 1053
   948  2.3826e-05  8.8494e-09  1.7360e-08  0:05:30 1052
   949  2.3788e-05  8.8350e-09  1.7329e-08  0:04:24 1051
   950  2.3750e-05  8.8207e-09  1.7299e-08  0:03:31 1050
   951  2.3713e-05  8.8066e-09  1.7268e-08  0:02:49 1049
   952  2.3677e-05  8.7927e-09  1.7238e-08  0:05:44 1048
   953  2.3640e-05  8.7790e-09  1.7208e-08  0:04:35 1047
   954  2.3604e-05  8.7655e-09  1.7177e-08  0:03:40 1046
   955  2.3567e-05  8.7521e-09  1.7146e-08  0:02:56 1045
   956  2.3531e-05  8.7389e-09  1.7115e-08  0:05:49 1044
   957  2.3496e-05  8.7258e-09  1.7085e-08  0:04:39 1043

  iter  continuity  x-velocity  y-velocity     time/iter
   958  2.3461e-05  8.7131e-09  1.7055e-08  0:03:43 1042
   959  2.3427e-05  8.7007e-09  1.7026e-08  0:06:27 1041
   960  2.3393e-05  8.6888e-09  1.6997e-08  0:05:09 1040
   961  2.3360e-05  8.6771e-09  1.6969e-08  0:04:07 1039
   962  2.3327e-05  8.6657e-09  1.6941e-08  0:03:17 1038
   963  2.3295e-05  8.6544e-09  1.6914e-08  0:06:05 1037
   964  2.3264e-05  8.6432e-09  1.6888e-08  0:04:52 1036
   965  2.3234e-05  8.6322e-09  1.6861e-08  0:03:53 1035
   966  2.3204e-05  8.6214e-09  1.6836e-08  0:03:06 1034
   967  2.3174e-05  8.6110e-09  1.6810e-08  0:02:29 1033
   968  2.3144e-05  8.6007e-09  1.6784e-08  0:05:25 1032

  iter  continuity  x-velocity  y-velocity     time/iter
   969  2.3114e-05  8.5908e-09  1.6758e-08  0:04:20 1031
   970  2.3084e-05  8.5811e-09  1.6733e-08  0:03:28 1030
   971  2.3053e-05  8.5714e-09  1.6707e-08  0:02:46 1029
   972  2.3023e-05  8.5620e-09  1.6681e-08  0:05:38 1028
   973  2.2992e-05  8.5527e-09  1.6655e-08  0:04:30 1027
   974  2.2962e-05  8.5436e-09  1.6628e-08  0:03:36 1026
   975  2.2931e-05  8.5347e-09  1.6602e-08  0:02:53 1025
   976  2.2900e-05  8.5260e-09  1.6575e-08  0:05:43 1024
   977  2.2869e-05  8.5175e-09  1.6548e-08  0:04:34 1023
   978  2.2837e-05  8.5091e-09  1.6521e-08  0:03:39 1022
   979  2.2805e-05  8.5008e-09  1.6493e-08  0:02:55 1021

  iter  continuity  x-velocity  y-velocity     time/iter
   980  2.2772e-05  8.4926e-09  1.6465e-08  0:05:44 1020
   981  2.2739e-05  8.4845e-09  1.6436e-08  0:04:35 1019
   982  2.2705e-05  8.4765e-09  1.6407e-08  0:03:40 1018
   983  2.2670e-05  8.4688e-09  1.6378e-08  0:02:56 1017
   984  2.2635e-05  8.4613e-09  1.6349e-08  0:02:20 1016
   985  2.2600e-05  8.4540e-09  1.6319e-08  0:05:15 1015
   986  2.2564e-05  8.4470e-09  1.6289e-08  0:04:12 1014
   987  2.2529e-05  8.4400e-09  1.6259e-08  0:03:21 1013
   988  2.2492e-05  8.4330e-09  1.6229e-08  0:02:41 1012
   989  2.2456e-05  8.4263e-09  1.6198e-08  0:05:31 1011
   990  2.2420e-05  8.4198e-09  1.6168e-08  0:04:24 1010

  iter  continuity  x-velocity  y-velocity     time/iter
   991  2.2385e-05  8.4135e-09  1.6138e-08  0:03:31 1009
   992  2.2349e-05  8.4074e-09  1.6107e-08  0:02:49 1008
   993  2.2315e-05  8.4016e-09  1.6077e-08  0:05:36 1007
   994  2.2280e-05  8.3961e-09  1.6047e-08  0:04:29 1006
   995  2.2247e-05  8.3909e-09  1.6018e-08  0:03:35 1005
   996  2.2214e-05  8.3860e-09  1.5988e-08  0:02:52 1004
   997  2.2182e-05  8.3816e-09  1.5959e-08  0:02:17 1003
   998  2.2150e-05  8.3774e-09  1.5930e-08  0:05:10 1002
   999  2.2119e-05  8.3735e-09  1.5901e-08  0:04:08 1001
  1000  2.2089e-05  8.3701e-09  1.5872e-08  0:03:18 1000
  1001  2.2059e-05  8.3669e-09  1.5844e-08  0:02:38  999

  iter  continuity  x-velocity  y-velocity     time/iter
  1002  2.2029e-05  8.3639e-09  1.5817e-08  0:05:26  998
  1003  2.1999e-05  8.3612e-09  1.5789e-08  0:04:21  997
  1004  2.1969e-05  8.3587e-09  1.5761e-08  0:03:28  996
  1005  2.1939e-05  8.3564e-09  1.5733e-08  0:06:05  995
  1006  2.1907e-05  8.3542e-09  1.5703e-08  0:04:52  994
  1007  2.1876e-05  8.3520e-09  1.5674e-08  0:03:53  993
  1008  2.1844e-05  8.3497e-09  1.5644e-08  0:03:07  992
  1009  2.1813e-05  8.3474e-09  1.5615e-08  0:05:47  991
  1010  2.1782e-05  8.3451e-09  1.5585e-08  0:04:38  990
  1011  2.1751e-05  8.3427e-09  1.5555e-08  0:03:42  989
  1012  2.1719e-05  8.3402e-09  1.5525e-08  0:02:57  988

  iter  continuity  x-velocity  y-velocity     time/iter
  1013  2.1688e-05  8.3376e-09  1.5496e-08  0:02:22  987
  1014  2.1657e-05  8.3349e-09  1.5466e-08  0:05:10  986
  1015  2.1625e-05  8.3320e-09  1.5436e-08  0:04:08  985
  1016  2.1594e-05  8.3289e-09  1.5406e-08  0:03:18  984
  1017  2.1563e-05  8.3256e-09  1.5377e-08  0:02:38  983
  1018  2.1532e-05  8.3221e-09  1.5347e-08  0:05:23  982
  1019  2.1501e-05  8.3184e-09  1.5318e-08  0:04:18  981
  1020  2.1470e-05  8.3143e-09  1.5288e-08  0:03:26  980
  1021  2.1438e-05  8.3098e-09  1.5258e-08  0:02:45  979
  1022  2.1406e-05  8.3049e-09  1.5229e-08  0:05:27  978
  1023  2.1374e-05  8.2995e-09  1.5199e-08  0:04:22  977

  iter  continuity  x-velocity  y-velocity     time/iter
  1024  2.1341e-05  8.2937e-09  1.5170e-08  0:03:29  976
  1025  2.1308e-05  8.2873e-09  1.5140e-08  0:02:47  975
  1026  2.1275e-05  8.2804e-09  1.5111e-08  0:05:28  974
  1027  2.1241e-05  8.2729e-09  1.5082e-08  0:04:22  973
  1028  2.1207e-05  8.2649e-09  1.5052e-08  0:03:30  972
  1029  2.1172e-05  8.2561e-09  1.5023e-08  0:02:48  971
  1030  2.1137e-05  8.2467e-09  1.4994e-08  0:05:28  970
  1031  2.1101e-05  8.2366e-09  1.4964e-08  0:04:22  969
  1032  2.1066e-05  8.2257e-09  1.4935e-08  0:03:29  968
  1033  2.1029e-05  8.2141e-09  1.4906e-08  0:02:47  967
  1034  2.0992e-05  8.2017e-09  1.4877e-08  0:02:14  966

  iter  continuity  x-velocity  y-velocity     time/iter
  1035  2.0955e-05  8.1885e-09  1.4848e-08  0:05:00  965
  1036  2.0918e-05  8.1746e-09  1.4819e-08  0:04:00  964
  1037  2.0880e-05  8.1599e-09  1.4791e-08  0:03:12  963
  1038  2.0841e-05  8.1445e-09  1.4762e-08  0:02:33  962
  1039  2.0803e-05  8.1282e-09  1.4734e-08  0:05:15  961
  1040  2.0764e-05  8.1112e-09  1.4706e-08  0:04:11  960
  1041  2.0724e-05  8.0934e-09  1.4678e-08  0:03:21  959
  1042  2.0685e-05  8.0749e-09  1.4650e-08  0:02:41  958
  1043  2.0645e-05  8.0557e-09  1.4622e-08  0:05:20  957
  1044  2.0605e-05  8.0358e-09  1.4594e-08  0:04:15  956
  1045  2.0564e-05  8.0152e-09  1.4567e-08  0:03:24  955

  iter  continuity  x-velocity  y-velocity     time/iter
  1046  2.0523e-05  7.9939e-09  1.4539e-08  0:02:43  954
  1047  2.0482e-05  7.9719e-09  1.4512e-08  0:05:21  953
  1048  2.0441e-05  7.9493e-09  1.4485e-08  0:04:17  952
  1049  2.0399e-05  7.9262e-09  1.4458e-08  0:03:25  951
  1050  2.0357e-05  7.9025e-09  1.4431e-08  0:02:44  950
  1051  2.0315e-05  7.8784e-09  1.4405e-08  0:05:21  949
  1052  2.0272e-05  7.8538e-09  1.4378e-08  0:04:16  948
  1053  2.0229e-05  7.8287e-09  1.4351e-08  0:03:25  947
  1054  2.0186e-05  7.8033e-09  1.4325e-08  0:05:53  946
  1055  2.0144e-05  7.7777e-09  1.4298e-08  0:04:42  945
  1056  2.0101e-05  7.7519e-09  1.4272e-08  0:03:45  944

  iter  continuity  x-velocity  y-velocity     time/iter
  1057  2.0058e-05  7.7261e-09  1.4245e-08  0:03:00  943
  1058  2.0015e-05  7.7001e-09  1.4218e-08  0:05:32  942
  1059  1.9970e-05  7.6741e-09  1.4191e-08  0:04:26  941
  1060  1.9924e-05  7.6479e-09  1.4163e-08  0:03:32  940
  1061  1.9877e-05  7.6216e-09  1.4135e-08  0:02:50  939
  1062  1.9830e-05  7.5952e-09  1.4106e-08  0:02:16  938
  1063  1.9782e-05  7.5689e-09  1.4078e-08  0:04:56  937
  1064  1.9735e-05  7.5427e-09  1.4049e-08  0:03:56  936
  1065  1.9687e-05  7.5166e-09  1.4020e-08  0:03:09  935
  1066  1.9640e-05  7.4908e-09  1.3991e-08  0:02:31  934
  1067  1.9593e-05  7.4651e-09  1.3962e-08  0:05:07  933

  iter  continuity  x-velocity  y-velocity     time/iter
  1068  1.9546e-05  7.4396e-09  1.3933e-08  0:04:06  932
  1069  1.9500e-05  7.4144e-09  1.3905e-08  0:03:16  931
  1070  1.9453e-05  7.3893e-09  1.3876e-08  0:02:37  930
  1071  1.9407e-05  7.3646e-09  1.3848e-08  0:05:11  929
  1072  1.9361e-05  7.3401e-09  1.3820e-08  0:04:09  928
  1073  1.9315e-05  7.3160e-09  1.3791e-08  0:03:19  927
  1074  1.9270e-05  7.2921e-09  1.3763e-08  0:02:39  926
  1075  1.9225e-05  7.2686e-09  1.3735e-08  0:05:12  925
  1076  1.9180e-05  7.2455e-09  1.3707e-08  0:04:09  924
  1077  1.9136e-05  7.2227e-09  1.3679e-08  0:03:19  923
  1078  1.9093e-05  7.2003e-09  1.3652e-08  0:02:39  922

  iter  continuity  x-velocity  y-velocity     time/iter
  1079  1.9049e-05  7.1781e-09  1.3624e-08  0:02:07  921
  1080  1.9006e-05  7.1563e-09  1.3596e-08  0:04:46  920
  1081  1.8964e-05  7.1349e-09  1.3569e-08  0:03:48  919
  1082  1.8921e-05  7.1138e-09  1.3542e-08  0:03:02  918
  1083  1.8880e-05  7.0930e-09  1.3515e-08  0:02:26  917
  1084  1.8839e-05  7.0726e-09  1.3488e-08  0:05:00  916
  1085  1.8798e-05  7.0525e-09  1.3461e-08  0:03:59  915
  1086  1.8757e-05  7.0328e-09  1.3434e-08  0:03:11  914
  1087  1.8717e-05  7.0134e-09  1.3407e-08  0:02:33  913
  1088  1.8678e-05  6.9944e-09  1.3380e-08  0:05:05  912
  1089  1.8639e-05  6.9756e-09  1.3354e-08  0:04:03  911

  iter  continuity  x-velocity  y-velocity     time/iter
  1090  1.8600e-05  6.9572e-09  1.3328e-08  0:03:15  910
  1091  1.8561e-05  6.9391e-09  1.3301e-08  0:02:35  909
  1092  1.8523e-05  6.9212e-09  1.3275e-08  0:05:06  908
  1093  1.8486e-05  6.9036e-09  1.3249e-08  0:04:04  907
  1094  1.8448e-05  6.8863e-09  1.3223e-08  0:03:15  906
  1095  1.8412e-05  6.8691e-09  1.3198e-08  0:02:36  905
  1096  1.8375e-05  6.8522e-09  1.3172e-08  0:02:05  904
  1097  1.8338e-05  6.8355e-09  1.3147e-08  0:04:40  903
  1098  1.8302e-05  6.8191e-09  1.3122e-08  0:03:44  902
  1099  1.8266e-05  6.8029e-09  1.3096e-08  0:02:59  901
  1100  1.8230e-05  6.7869e-09  1.3071e-08  0:05:23  900

  iter  continuity  x-velocity  y-velocity     time/iter
  1101  1.8195e-05  6.7711e-09  1.3046e-08  0:04:18  899
  1102  1.8159e-05  6.7555e-09  1.3020e-08  0:03:26  898
  1103  1.8124e-05  6.7398e-09  1.2995e-08  0:02:45  897
  1104  1.8089e-05  6.7242e-09  1.2971e-08  0:05:11  896
  1105  1.8054e-05  6.7089e-09  1.2946e-08  0:04:08  895
  1106  1.8020e-05  6.6937e-09  1.2922e-08  0:03:19  894
  1107  1.7986e-05  6.6789e-09  1.2898e-08  0:02:39  893
  1108  1.7952e-05  6.6643e-09  1.2873e-08  0:05:05  892
  1109  1.7918e-05  6.6500e-09  1.2849e-08  0:04:04  891
  1110  1.7885e-05  6.6360e-09  1.2825e-08  0:03:15  890
  1111  1.7851e-05  6.6222e-09  1.2801e-08  0:02:36  889

  iter  continuity  x-velocity  y-velocity     time/iter
  1112  1.7818e-05  6.6089e-09  1.2778e-08  0:05:02  888
  1113  1.7785e-05  6.5958e-09  1.2754e-08  0:04:01  887
  1114  1.7752e-05  6.5828e-09  1.2730e-08  0:03:13  886
  1115  1.7720e-05  6.5699e-09  1.2706e-08  0:02:34  885
  1116  1.7687e-05  6.5570e-09  1.2685e-08  0:02:03  884
  1117  1.7654e-05  6.5442e-09  1.2663e-08  0:04:35  883
  1118  1.7621e-05  6.5316e-09  1.2642e-08  0:03:40  882
  1119  1.7589e-05  6.5193e-09  1.2621e-08  0:02:56  881
  1120  1.7556e-05  6.5072e-09  1.2600e-08  0:02:20  880
  1121  1.7523e-05  6.4951e-09  1.2578e-08  0:04:48  879
  1122  1.7491e-05  6.4828e-09  1.2559e-08  0:03:50  878

  iter  continuity  x-velocity  y-velocity     time/iter
  1123  1.7459e-05  6.4704e-09  1.2540e-08  0:03:04  877
  1124  1.7428e-05  6.4581e-09  1.2521e-08  0:02:27  876
  1125  1.7397e-05  6.4459e-09  1.2501e-08  0:04:52  875
  1126  1.7365e-05  6.4340e-09  1.2480e-08  0:03:54  874
  1127  1.7333e-05  6.4223e-09  1.2459e-08  0:03:07  873
  1128  1.7301e-05  6.4106e-09  1.2437e-08  0:02:29  872
  1129  1.7269e-05  6.3989e-09  1.2414e-08  0:04:53  871
  1130  1.7238e-05  6.3872e-09  1.2392e-08  0:03:54  870
  1131  1.7206e-05  6.3755e-09  1.2371e-08  0:03:07  869
  1132  1.7176e-05  6.3639e-09  1.2349e-08  0:02:30  868
  1133  1.7145e-05  6.3525e-09  1.2327e-08  0:02:00  867

  iter  continuity  x-velocity  y-velocity     time/iter
  1134  1.7115e-05  6.3411e-09  1.2306e-08  0:04:29  866
  1135  1.7084e-05  6.3296e-09  1.2284e-08  0:03:35  865
  1136  1.7053e-05  6.3181e-09  1.2262e-08  0:02:52  864
  1137  1.7021e-05  6.3063e-09  1.2239e-08  0:02:17  863
  1138  1.6989e-05  6.2945e-09  1.2216e-08  0:04:42  862
  1139  1.6957e-05  6.2826e-09  1.2193e-08  0:03:45  861
  1140  1.6925e-05  6.2707e-09  1.2170e-08  0:03:00  860
  1141  1.6893e-05  6.2589e-09  1.2146e-08  0:02:24  859
  1142  1.6861e-05  6.2470e-09  1.2122e-08  0:04:47  858
  1143  1.6828e-05  6.2349e-09  1.2098e-08  0:03:49  857
  1144  1.6794e-05  6.2227e-09  1.2072e-08  0:03:03  856

  iter  continuity  x-velocity  y-velocity     time/iter
  1145  1.6760e-05  6.2101e-09  1.2046e-08  0:02:26  855
  1146  1.6725e-05  6.1973e-09  1.2020e-08  0:01:57  854
  1147  1.6690e-05  6.1842e-09  1.1992e-08  0:04:24  853
  1148  1.6655e-05  6.1710e-09  1.1965e-08  0:03:31  852
  1149  1.6620e-05  6.1576e-09  1.1937e-08  0:02:49  851
  1150  1.6584e-05  6.1441e-09  1.1910e-08  0:05:05  850
  1151  1.6550e-05  6.1308e-09  1.1882e-08  0:04:03  849
  1152  1.6516e-05  6.1176e-09  1.1855e-08  0:03:15  848
  1153  1.6483e-05  6.1049e-09  1.1828e-08  0:02:35  847
  1154  1.6451e-05  6.0922e-09  1.1802e-08  0:04:53  846
  1155  1.6420e-05  6.0802e-09  1.1776e-08  0:03:54  845

  iter  continuity  x-velocity  y-velocity     time/iter
  1156  1.6389e-05  6.0684e-09  1.1753e-08  0:03:07  844
  1157  1.6360e-05  6.0571e-09  1.1732e-08  0:02:30  843
  1158  1.6335e-05  6.0464e-09  1.1714e-08  0:04:48  842
  1159  1.6312e-05  6.0361e-09  1.1696e-08  0:03:50  841
  1160  1.6290e-05  6.0262e-09  1.1679e-08  0:03:04  840
  1161  1.6270e-05  6.0164e-09  1.1663e-08  0:02:27  839
  1162  1.6250e-05  6.0069e-09  1.1648e-08  0:01:57  838
  1163  1.6229e-05  5.9976e-09  1.1631e-08  0:04:21  837
  1164  1.6208e-05  5.9881e-09  1.1614e-08  0:03:29  836
  1165  1.6186e-05  5.9782e-09  1.1596e-08  0:02:47  835
  1166  1.6164e-05  5.9683e-09  1.1579e-08  0:02:13  834

  iter  continuity  x-velocity  y-velocity     time/iter
  1167  1.6141e-05  5.9582e-09  1.1562e-08  0:04:33  833
  1168  1.6118e-05  5.9481e-09  1.1544e-08  0:03:38  832
  1169  1.6094e-05  5.9379e-09  1.1526e-08  0:02:54  831
  1170  1.6067e-05  5.9278e-09  1.1507e-08  0:02:19  830
  1171  1.6031e-05  5.9173e-09  1.1483e-08  0:04:37  829
  1172  1.5991e-05  5.9061e-09  1.1456e-08  0:03:41  828
  1173  1.5950e-05  5.8942e-09  1.1428e-08  0:02:57  827
  1174  1.5911e-05  5.8819e-09  1.1399e-08  0:02:21  826
  1175  1.5873e-05  5.8695e-09  1.1371e-08  0:04:38  825
  1176  1.5836e-05  5.8571e-09  1.1344e-08  0:03:42  824
  1177  1.5800e-05  5.8447e-09  1.1317e-08  0:02:57  823

  iter  continuity  x-velocity  y-velocity     time/iter
[...]
  1745  6.3849e-06  2.2883e-09  4.2958e-09  0:01:25  255
  1746  6.3767e-06  2.2851e-09  4.2900e-09  0:01:08  254
  1747  6.3684e-06  2.2820e-09  4.2842e-09  0:00:54  253
  1748  6.3602e-06  2.2788e-09  4.2784e-09  0:00:43  252
  1749  6.3520e-06  2.2757e-09  4.2725e-09  0:00:34  251

  iter  continuity  x-velocity  y-velocity     time/iter
  1750  6.3437e-06  2.2726e-09  4.2667e-09  0:01:17  250
  1751  6.3353e-06  2.2694e-09  4.2607e-09  0:01:02  249
  1752  6.3270e-06  2.2663e-09  4.2548e-09  0:00:49  248
  1753  6.3186e-06  2.2631e-09  4.2488e-09  0:00:39  247
  1754  6.3102e-06  2.2599e-09  4.2427e-09  0:01:20  246
  1755  6.3017e-06  2.2568e-09  4.2366e-09  0:01:04  245
  1756  6.2932e-06  2.2536e-09  4.2305e-09  0:00:51  244
  1757  6.2846e-06  2.2504e-09  4.2242e-09  0:00:41  243
  1758  6.2760e-06  2.2472e-09  4.2180e-09  0:01:21  242
  1759  6.2673e-06  2.2440e-09  4.2116e-09  0:01:04  241
  1760  6.2585e-06  2.2408e-09  4.2052e-09  0:00:51  240

  iter  continuity  x-velocity  y-velocity     time/iter
  1761  6.2497e-06  2.2376e-09  4.1987e-09  0:00:41  239
  1762  6.2409e-06  2.2344e-09  4.1922e-09  0:00:33  238
  1763  6.2320e-06  2.2311e-09  4.1855e-09  0:01:13  237
  1764  6.2231e-06  2.2278e-09  4.1789e-09  0:00:58  236
  1765  6.2140e-06  2.2245e-09  4.1721e-09  0:01:34  235
  1766  6.2050e-06  2.2212e-09  4.1654e-09  0:01:15  234
  1767  6.1958e-06  2.2178e-09  4.1586e-09  0:00:59  233
  1768  6.1866e-06  2.2145e-09  4.1517e-09  0:00:47  232
  1769  6.1773e-06  2.2111e-09  4.1447e-09  0:00:38  231
  1770  6.1681e-06  2.2077e-09  4.1377e-09  0:01:16  230
  1771  6.1588e-06  2.2043e-09  4.1306e-09  0:01:01  229

  iter  continuity  x-velocity  y-velocity     time/iter
  1772  6.1495e-06  2.2009e-09  4.1235e-09  0:00:48  228
  1773  6.1401e-06  2.1975e-09  4.1164e-09  0:00:38  227
  1774  6.1308e-06  2.1941e-09  4.1092e-09  0:01:16  226
  1775  6.1214e-06  2.1907e-09  4.1019e-09  0:01:00  225
  1776  6.1119e-06  2.1873e-09  4.0947e-09  0:00:48  224
  1777  6.1025e-06  2.1839e-09  4.0874e-09  0:00:38  223
  1778  6.0930e-06  2.1804e-09  4.0801e-09  0:01:15  222
  1779  6.0835e-06  2.1770e-09  4.0728e-09  0:01:00  221
  1780  6.0741e-06  2.1736e-09  4.0655e-09  0:00:47  220
  1781  6.0646e-06  2.1701e-09  4.0583e-09  0:00:38  219
  1782  6.0552e-06  2.1667e-09  4.0513e-09  0:00:30  218

  iter  continuity  x-velocity  y-velocity     time/iter
  1783  6.0458e-06  2.1633e-09  4.0442e-09  0:01:07  217
  1784  6.0366e-06  2.1599e-09  4.0373e-09  0:00:54  216
  1785  6.0273e-06  2.1565e-09  4.0303e-09  0:00:43  215
  1786  6.0180e-06  2.1531e-09  4.0233e-09  0:00:34  214
  1787  6.0087e-06  2.1497e-09  4.0163e-09  0:01:10  213
  1788  5.9993e-06  2.1463e-09  4.0093e-09  0:00:55  212
  1789  5.9897e-06  2.1429e-09  4.0021e-09  0:00:44  211
  1790  5.9800e-06  2.1395e-09  3.9949e-09  0:00:35  210
  1791  5.9704e-06  2.1361e-09  3.9877e-09  0:01:10  209
  1792  5.9608e-06  2.1326e-09  3.9807e-09  0:00:56  208
  1793  5.9514e-06  2.1292e-09  3.9737e-09  0:00:44  207

  iter  continuity  x-velocity  y-velocity     time/iter
  1794  5.9421e-06  2.1258e-09  3.9669e-09  0:00:35  206
  1795  5.9329e-06  2.1226e-09  3.9603e-09  0:01:09  205
  1796  5.9238e-06  2.1194e-09  3.9539e-09  0:00:55  204
  1797  5.9147e-06  2.1162e-09  3.9474e-09  0:00:44  203
  1798  5.9056e-06  2.1130e-09  3.9409e-09  0:00:35  202
  1799  5.8965e-06  2.1098e-09  3.9344e-09  0:00:28  201
  1800  5.8874e-06  2.1066e-09  3.9279e-09  0:01:02  200
  1801  5.8785e-06  2.1034e-09  3.9214e-09  0:00:49  199
  1802  5.8696e-06  2.1002e-09  3.9149e-09  0:00:39  198
  1803  5.8608e-06  2.0970e-09  3.9085e-09  0:00:31  197
  1804  5.8521e-06  2.0938e-09  3.9021e-09  0:01:04  196

  iter  continuity  x-velocity  y-velocity     time/iter
  1805  5.8433e-06  2.0907e-09  3.8957e-09  0:00:51  195
  1806  5.8346e-06  2.0875e-09  3.8894e-09  0:00:41  194
  1807  5.8259e-06  2.0844e-09  3.8830e-09  0:00:32  193
  1808  5.8172e-06  2.0813e-09  3.8768e-09  0:01:04  192
  1809  5.8085e-06  2.0782e-09  3.8704e-09  0:00:51  191
  1810  5.7998e-06  2.0751e-09  3.8641e-09  0:00:41  190
  1811  5.7912e-06  2.0720e-09  3.8577e-09  0:01:10  189
  1812  5.7826e-06  2.0689e-09  3.8514e-09  0:00:56  188
  1813  5.7740e-06  2.0658e-09  3.8452e-09  0:00:44  187
  1814  5.7655e-06  2.0627e-09  3.8391e-09  0:00:35  186
  1815  5.7570e-06  2.0596e-09  3.8330e-09  0:01:05  185

  iter  continuity  x-velocity  y-velocity     time/iter
  1816  5.7485e-06  2.0566e-09  3.8269e-09  0:00:52  184
  1817  5.7401e-06  2.0535e-09  3.8208e-09  0:00:41  183
  1818  5.7317e-06  2.0505e-09  3.8147e-09  0:00:33  182
  1819  5.7232e-06  2.0474e-09  3.8086e-09  0:00:26  181
  1820  5.7149e-06  2.0444e-09  3.8026e-09  0:00:57  180
  1821  5.7065e-06  2.0414e-09  3.7965e-09  0:00:45  179
  1822  5.6981e-06  2.0384e-09  3.7905e-09  0:00:36  178
  1823  5.6898e-06  2.0354e-09  3.7845e-09  0:00:29  177
  1824  5.6814e-06  2.0324e-09  3.7785e-09  0:00:58  176
  1825  5.6731e-06  2.0294e-09  3.7725e-09  0:00:46  175
  1826  5.6648e-06  2.0264e-09  3.7666e-09  0:00:37  174

  iter  continuity  x-velocity  y-velocity     time/iter
  1827  5.6564e-06  2.0234e-09  3.7606e-09  0:00:29  173
  1828  5.6481e-06  2.0204e-09  3.7547e-09  0:00:58  172
  1829  5.6398e-06  2.0174e-09  3.7487e-09  0:00:46  171
  1830  5.6316e-06  2.0144e-09  3.7428e-09  0:00:36  170
  1831  5.6233e-06  2.0114e-09  3.7369e-09  0:00:29  169
  1832  5.6150e-06  2.0084e-09  3.7310e-09  0:00:23  168
  1833  5.6066e-06  2.0054e-09  3.7251e-09  0:00:52  167
  1834  5.5983e-06  2.0024e-09  3.7192e-09  0:00:41  166
  1835  5.5899e-06  1.9994e-09  3.7132e-09  0:00:33  165
  1836  5.5815e-06  1.9964e-09  3.7073e-09  0:00:59  164
  1837  5.5730e-06  1.9934e-09  3.7013e-09  0:00:47  163

  iter  continuity  x-velocity  y-velocity     time/iter
  1838  5.5645e-06  1.9904e-09  3.6953e-09  0:00:37  162
  1839  5.5559e-06  1.9874e-09  3.6892e-09  0:00:30  161
  1840  5.5473e-06  1.9844e-09  3.6832e-09  0:00:23  160
  1841  5.5388e-06  1.9814e-09  3.6771e-09  0:00:50  159
  1842  5.5303e-06  1.9784e-09  3.6710e-09  0:00:40  158
  1843  5.5218e-06  1.9754e-09  3.6649e-09  0:00:32  157
  1844  5.5133e-06  1.9724e-09  3.6588e-09  0:00:25  156
  1845  5.5049e-06  1.9694e-09  3.6527e-09  0:00:51  155
  1846  5.4965e-06  1.9663e-09  3.6467e-09  0:00:41  154
  1847  5.4882e-06  1.9633e-09  3.6407e-09  0:00:32  153
  1848  5.4799e-06  1.9603e-09  3.6347e-09  0:00:26  152

  iter  continuity  x-velocity  y-velocity     time/iter
  1849  5.4716e-06  1.9573e-09  3.6288e-09  0:00:51  151
  1850  5.4633e-06  1.9543e-09  3.6229e-09  0:00:40  150
  1851  5.4551e-06  1.9513e-09  3.6170e-09  0:00:32  149
  1852  5.4468e-06  1.9483e-09  3.6111e-09  0:00:25  148
  1853  5.4386e-06  1.9454e-09  3.6052e-09  0:00:20  147
  1854  5.4303e-06  1.9424e-09  3.5994e-09  0:00:45  146
  1855  5.4221e-06  1.9395e-09  3.5936e-09  0:00:36  145
  1856  5.4139e-06  1.9366e-09  3.5878e-09  0:00:57  144
  1857  5.4057e-06  1.9336e-09  3.5820e-09  0:00:46  143
  1858  5.3975e-06  1.9307e-09  3.5762e-09  0:00:36  142
  1859  5.3893e-06  1.9278e-09  3.5704e-09  0:00:29  141

  iter  continuity  x-velocity  y-velocity     time/iter
  1860  5.3812e-06  1.9249e-09  3.5647e-09  0:00:23  140
  1861  5.3730e-06  1.9220e-09  3.5590e-09  0:00:46  139
  1862  5.3649e-06  1.9191e-09  3.5532e-09  0:00:36  138
  1863  5.3569e-06  1.9162e-09  3.5473e-09  0:00:29  137
  1864  5.3488e-06  1.9133e-09  3.5416e-09  0:00:23  136
  1865  5.3408e-06  1.9104e-09  3.5359e-09  0:00:45  135
  1866  5.3328e-06  1.9075e-09  3.5303e-09  0:00:36  134
  1867  5.3247e-06  1.9045e-09  3.5247e-09  0:00:29  133
  1868  5.3167e-06  1.9016e-09  3.5191e-09  0:00:23  132
  1869  5.3087e-06  1.8986e-09  3.5135e-09  0:00:44  131
  1870  5.3007e-06  1.8957e-09  3.5080e-09  0:00:35  130

  iter  continuity  x-velocity  y-velocity     time/iter
  1871  5.2927e-06  1.8927e-09  3.5025e-09  0:00:28  129
  1872  5.2847e-06  1.8898e-09  3.4969e-09  0:00:22  128
  1873  5.2767e-06  1.8869e-09  3.4913e-09  0:00:43  127
  1874  5.2688e-06  1.8840e-09  3.4857e-09  0:00:34  126
  1875  5.2609e-06  1.8812e-09  3.4802e-09  0:00:27  125
  1876  5.2530e-06  1.8783e-09  3.4746e-09  0:00:21  124
  1877  5.2451e-06  1.8754e-09  3.4691e-09  0:00:17  123
  1878  5.2372e-06  1.8726e-09  3.4637e-09  0:00:38  122
  1879  5.2293e-06  1.8697e-09  3.4582e-09  0:00:30  121
  1880  5.2215e-06  1.8669e-09  3.4528e-09  0:00:24  120
  1881  5.2137e-06  1.8642e-09  3.4474e-09  0:00:19  119

  iter  continuity  x-velocity  y-velocity     time/iter
  1882  5.2059e-06  1.8614e-09  3.4421e-09  0:00:39  118
  1883  5.1982e-06  1.8587e-09  3.4368e-09  0:00:31  117
  1884  5.1904e-06  1.8559e-09  3.4314e-09  0:00:24  116
  1885  5.1828e-06  1.8532e-09  3.4262e-09  0:00:19  115
  1886  5.1751e-06  1.8504e-09  3.4209e-09  0:00:38  114
  1887  5.1675e-06  1.8477e-09  3.4156e-09  0:00:30  113
  1888  5.1598e-06  1.8450e-09  3.4104e-09  0:00:24  112
  1889  5.1523e-06  1.8422e-09  3.4051e-09  0:00:19  111
  1890  5.1447e-06  1.8395e-09  3.3999e-09  0:00:37  110
  1891  5.1371e-06  1.8368e-09  3.3947e-09  0:00:29  109
  1892  5.1296e-06  1.8341e-09  3.3895e-09  0:00:23  108

  iter  continuity  x-velocity  y-velocity     time/iter
  1893  5.1221e-06  1.8314e-09  3.3844e-09  0:00:18  107
  1894  5.1145e-06  1.8286e-09  3.3792e-09  0:00:15  106
  1895  5.1070e-06  1.8259e-09  3.3741e-09  0:00:33  105
  1896  5.0995e-06  1.8232e-09  3.3689e-09  0:00:26  104
  1897  5.0921e-06  1.8205e-09  3.3638e-09  0:00:20  103
  1898  5.0848e-06  1.8179e-09  3.3587e-09  0:00:16  102
  1899  5.0774e-06  1.8152e-09  3.3537e-09  0:00:33  101
  1900  5.0701e-06  1.8125e-09  3.3486e-09  0:00:26  100
  1901  5.0628e-06  1.8098e-09  3.3435e-09  0:00:21   99
  1902  5.0555e-06  1.8071e-09  3.3384e-09  0:00:16   98
  1903  5.0482e-06  1.8045e-09  3.3334e-09  0:00:32   97

  iter  continuity  x-velocity  y-velocity     time/iter
  1904  5.0409e-06  1.8018e-09  3.3283e-09  0:00:26   96
  1905  5.0337e-06  1.7991e-09  3.3233e-09  0:00:20   95
  1906  5.0265e-06  1.7965e-09  3.3183e-09  0:00:35   94
  1907  5.0193e-06  1.7938e-09  3.3133e-09  0:00:28   93
  1908  5.0121e-06  1.7912e-09  3.3083e-09  0:00:22   92
  1909  5.0051e-06  1.7886e-09  3.3034e-09  0:00:17   91
  1910  4.9981e-06  1.7860e-09  3.2985e-09  0:00:32   90
  1911  4.9912e-06  1.7834e-09  3.2936e-09  0:00:25   89
  1912  4.9843e-06  1.7808e-09  3.2887e-09  0:00:20   88
  1913  4.9775e-06  1.7782e-09  3.2839e-09  0:00:16   87
  1914  4.9707e-06  1.7757e-09  3.2791e-09  0:00:12   86

  iter  continuity  x-velocity  y-velocity     time/iter
  1915  4.9640e-06  1.7731e-09  3.2743e-09  0:00:27   85
  1916  4.9573e-06  1.7706e-09  3.2695e-09  0:00:21   84
  1917  4.9507e-06  1.7681e-09  3.2648e-09  0:00:17   83
  1918  4.9442e-06  1.7656e-09  3.2602e-09  0:00:13   82
  1919  4.9378e-06  1.7631e-09  3.2555e-09  0:00:27   81
  1920  4.9315e-06  1.7606e-09  3.2510e-09  0:00:21   80
  1921  4.9253e-06  1.7582e-09  3.2464e-09  0:00:17   79
  1922  4.9191e-06  1.7558e-09  3.2419e-09  0:00:13   78
  1923  4.9131e-06  1.7534e-09  3.2374e-09  0:00:26   77
  1924  4.9071e-06  1.7510e-09  3.2330e-09  0:00:20   76
  1925  4.9012e-06  1.7486e-09  3.2287e-09  0:00:16   75

  iter  continuity  x-velocity  y-velocity     time/iter
  1926  4.8953e-06  1.7463e-09  3.2244e-09  0:00:13   74
  1927  4.8896e-06  1.7440e-09  3.2202e-09  0:00:25   73
  1928  4.8840e-06  1.7418e-09  3.2160e-09  0:00:19   72
  1929  4.8784e-06  1.7395e-09  3.2119e-09  0:00:15   71
  1930  4.8730e-06  1.7373e-09  3.2079e-09  0:00:12   70
  1931  4.8675e-06  1.7351e-09  3.2039e-09  0:00:10   69
  1932  4.8610e-06  1.7329e-09  3.1994e-09  0:00:21   68
  1933  4.8539e-06  1.7306e-09  3.1946e-09  0:00:17   67
  1934  4.8464e-06  1.7281e-09  3.1895e-09  0:00:13   66
  1935  4.8384e-06  1.7255e-09  3.1842e-09  0:00:10   65
  1936  4.8300e-06  1.7227e-09  3.1788e-09  0:00:21   64

  iter  continuity  x-velocity  y-velocity     time/iter
  1937  4.8213e-06  1.7198e-09  3.1731e-09  0:00:16   63
  1938  4.8125e-06  1.7170e-09  3.1672e-09  0:00:13   62
  1939  4.8036e-06  1.7142e-09  3.1613e-09  0:00:10   61
  1940  4.7947e-06  1.7113e-09  3.1555e-09  0:00:20   60
  1941  4.7859e-06  1.7085e-09  3.1497e-09  0:00:16   59
  1942  4.7772e-06  1.7059e-09  3.1441e-09  0:00:12   58
  1943  4.7685e-06  1.7032e-09  3.1386e-09  0:00:10   57
  1944  4.7602e-06  1.7005e-09  3.1331e-09  0:00:08   56
  1945  4.7520e-06  1.6978e-09  3.1278e-09  0:00:17   55
  1946  4.7440e-06  1.6951e-09  3.1225e-09  0:00:13   54
  1947  4.7361e-06  1.6924e-09  3.1175e-09  0:00:10   53

  iter  continuity  x-velocity  y-velocity     time/iter
  1948  4.7284e-06  1.6898e-09  3.1124e-09  0:00:08   52
  1949  4.7207e-06  1.6872e-09  3.1074e-09  0:00:17   51
  1950  4.7130e-06  1.6845e-09  3.1024e-09  0:00:13   50
  1951  4.7054e-06  1.6819e-09  3.0975e-09  0:00:10   49
  1952  4.6979e-06  1.6793e-09  3.0927e-09  0:00:18   48
  1953  4.6905e-06  1.6767e-09  3.0878e-09  0:00:14   47
  1954  4.6831e-06  1.6741e-09  3.0830e-09  0:00:11   46
  1955  4.6757e-06  1.6716e-09  3.0782e-09  0:00:08   45
  1956  4.6684e-06  1.6690e-09  3.0734e-09  0:00:15   44
  1957  4.6612e-06  1.6664e-09  3.0686e-09  0:00:12   43
  1958  4.6542e-06  1.6639e-09  3.0638e-09  0:00:09   42

  iter  continuity  x-velocity  y-velocity     time/iter
  1959  4.6471e-06  1.6614e-09  3.0590e-09  0:00:07   41
  1960  4.6401e-06  1.6589e-09  3.0543e-09  0:00:06   40
  1961  4.6331e-06  1.6564e-09  3.0495e-09  0:00:12   39
  1962  4.6261e-06  1.6539e-09  3.0447e-09  0:00:10   38
  1963  4.6193e-06  1.6514e-09  3.0400e-09  0:00:07   37
  1964  4.6124e-06  1.6489e-09  3.0352e-09  0:00:06   36
  1965  4.6056e-06  1.6464e-09  3.0304e-09  0:00:12   35
  1966  4.5988e-06  1.6440e-09  3.0257e-09  0:00:09   34
  1967  4.5920e-06  1.6415e-09  3.0210e-09  0:00:07   33
  1968  4.5853e-06  1.6390e-09  3.0162e-09  0:00:05   32
  1969  4.5785e-06  1.6365e-09  3.0115e-09  0:00:10   31

  iter  continuity  x-velocity  y-velocity     time/iter
  1970  4.5718e-06  1.6340e-09  3.0068e-09  0:00:08   30
  1971  4.5651e-06  1.6315e-09  3.0021e-09  0:00:06   29
  1972  4.5584e-06  1.6291e-09  2.9974e-09  0:00:05   28
  1973  4.5517e-06  1.6266e-09  2.9927e-09  0:00:09   27
  1974  4.5450e-06  1.6241e-09  2.9881e-09  0:00:07   26
  1975  4.5384e-06  1.6216e-09  2.9834e-09  0:00:05   25
  1976  4.5318e-06  1.6192e-09  2.9787e-09  0:00:04   24
  1977  4.5252e-06  1.6167e-09  2.9741e-09  0:00:03   23
  1978  4.5186e-06  1.6142e-09  2.9695e-09  0:00:07   22
  1979  4.5120e-06  1.6118e-09  2.9649e-09  0:00:05   21
  1980  4.5054e-06  1.6093e-09  2.9603e-09  0:00:04   20

  iter  continuity  x-velocity  y-velocity     time/iter
  1981  4.4989e-06  1.6068e-09  2.9557e-09  0:00:03   19
  1982  4.4922e-06  1.6044e-09  2.9511e-09  0:00:06   18
  1983  4.4855e-06  1.6019e-09  2.9465e-09  0:00:04   17
  1984  4.4790e-06  1.5995e-09  2.9419e-09  0:00:03   16
  1985  4.4725e-06  1.5971e-09  2.9373e-09  0:00:03   15
  1986  4.4661e-06  1.5946e-09  2.9328e-09  0:00:05   14
  1987  4.4596e-06  1.5922e-09  2.9282e-09  0:00:03   13
  1988  4.4531e-06  1.5898e-09  2.9237e-09  0:00:03   12
  1989  4.4467e-06  1.5874e-09  2.9191e-09  0:00:02   11
  1990  4.4403e-06  1.5850e-09  2.9146e-09  0:00:01   10
  1991  4.4339e-06  1.5826e-09  2.9101e-09  0:00:03    9

  iter  continuity  x-velocity  y-velocity     time/iter
  1992  4.4274e-06  1.5802e-09  2.9055e-09  0:00:02    8
  1993  4.4211e-06  1.5778e-09  2.9010e-09  0:00:01    7
  1994  4.4147e-06  1.5754e-09  2.8965e-09  0:00:01    6
  1995  4.4083e-06  1.5730e-09  2.8920e-09  0:00:02    5
  1996  4.4019e-06  1.5706e-09  2.8875e-09  0:00:01    4
  1997  4.3956e-06  1.5682e-09  2.8830e-09  0:00:01    3
  1998  4.3892e-06  1.5659e-09  2.8786e-09  0:00:01    2
  1999  4.3829e-06  1.5635e-09  2.8741e-09  0:00:00    1
  2000  4.3766e-06  1.5611e-09  2.8696e-09  0:00:00    0

> 
adjoint/                parallel/               server/
define/                 parametric-study/       solve/
display/                plot/                   surface/
exit                    preferences/            views/
file/                   print-license-usage
mesh/                   report/

> ;create rakes
surface/rake-surface cv_inlet -0.005 -0.065 -0.005 0.065 1000

> surface/rake-surface cv_outlet 1.005 -0.065 1.005 0.065 1000

> surface/rake-surface cv_top -0.005 0.065 1.005 0.065 1000

> surface/rake-surface cv_bottom -0.005 -0.065 1.005 -0.065 1000

> surface/point-surface free-stream -15 0

> 
adjoint/                parallel/               server/
define/                 parametric-study/       solve/
display/                plot/                   surface/
exit                    preferences/            views/
file/                   print-license-usage
mesh/                   report/

> ;export data
file/export/ascii NP_CVinlet_data cv_inlet () no pressure x-velocity y-velocity dx-velocity-dx dx-velocity-dy dy-velocity-dx dy-velocity-dy q no 
Writing "NP_CVinlet_data"...

Writing information to ascii file ...
Done.

ok


Overwrite confirmations (/file/set-batch-options ...)
are on -- will therefore ignore the following journal
Error: invalid command: ok


> file/export/ascii NP_CVoutlet_data cv_outlet () no pressure x-velocity y-velocity dx-velocity-dx dx-velocity-dy dy-velocity-dx dy-velocity-dy q no 
Writing "NP_CVoutlet_data"...

Writing information to ascii file ...
Done.

ok


Overwrite confirmations (/file/set-batch-options ...)
are on -- will therefore ignore the following journal
Error: invalid command: ok


> file/export/ascii NP_CVtop_data cv_top () no pressure x-velocity y-velocity dx-velocity-dx dx-velocity-dy dy-velocity-dx dy-velocity-dy q no 
Writing "NP_CVtop_data"...

Writing information to ascii file ...
Done.

ok


Overwrite confirmations (/file/set-batch-options ...)
are on -- will therefore ignore the following journal
Error: invalid command: ok


> file/export/ascii NP_CVbottom_data cv_bottom () no pressure x-velocity y-velocity dx-velocity-dx dx-velocity-dy dy-velocity-dx dy-velocity-dy q no 
Writing "NP_CVbottom_data"...

Writing information to ascii file ...
Done.

ok


Overwrite confirmations (/file/set-batch-options ...)
are on -- will therefore ignore the following journal
Error: invalid command: ok


> file/export/ascii air_properties free-stream () no density viscosity-lam q no 
Writing "air_properties"...

Writing information to ascii file ...
Done.

ok


Overwrite confirmations (/file/set-batch-options ...)
are on -- will therefore ignore the following journal
Error: invalid command: ok


> 
adjoint/                parallel/               server/
define/                 parametric-study/       solve/
display/                plot/                   surface/
exit                    preferences/            views/
file/                   print-license-usage
mesh/                   report/

> ;flag file to know when simulation is over
file/export/ascii flag_file free-stream () no pressure q no 
Writing "flag_file"...

Writing information to ascii file ...
Done.

ok


Overwrite confirmations (/file/set-batch-options ...)
are on -- will therefore ignore the following journal
Error: invalid command: ok


> 
adjoint/                parallel/               server/
define/                 parametric-study/       solve/
display/                plot/                   surface/
exit                    preferences/            views/
file/                   print-license-usage
mesh/                   report/

