Auto-Transcript Start Time:  18:51:05, 20 Jul 2025 GMT Summer Time 
Current Directory: "C:\Users\V.Chepuri\OneDrive - Cranfield University\irp\pablo\re_20000\AOA_1"

              Welcome to ANSYS Fluent 2024 R2

              Copyright 1987-2024 ANSYS, Inc. All Rights Reserved.
              Unauthorized use, distribution or duplication is prohibited.
              This product is subject to U.S. laws governing export and re-export.
              For full Legal Notice, see documentation.

Build Time: May 13 2024 11:28:30 EST  Build Id: 10192  
 
Connected License Server List:	1055@cclic-2.central.cranfield.ac.uk

*********************************************
Info: Your license enables 4-way parallel execution.
For faster simulations, please start the application with the appropriate parallel options.
*********************************************


     --------------------------------------------------------------
     This is an academic version of ANSYS FLUENT. Usage of this product
     license is limited to the terms and conditions specified in your ANSYS
     license form, additional terms section.
     --------------------------------------------------------------
Host spawning Node 0 on machine "37PCL050" (win64).

-------------------------------------------------------------------------------
ID    Hostname  Core  O.S.         PID    Vendor                          
-------------------------------------------------------------------------------
n0    37PCL050  1/28  Windows-x64  17420  Intel(R) Core(TM) i7-14700      
host  37PCL050        Windows-x64  21552  Intel(R) Core(TM) i7-14700      

MPI Option Selected: intel
-------------------------------------------------------------------------------

Cleanup script file is C:\\Users\\V.Chepuri\\OneDrive - Cranfield University\\irp\\pablo\\re_20000\\AOA_1\\cleanup-fluent-37PCL050-21552.bat

Posting ANSYS Product Improvement Program startup data
Done.

> (cx-gui-do cx-activate-item "Key Behavioral Changes*PanelButtons*PushButton1(OK)")
(cx-gui-do cx-activate-item "MenuBar*ReadSubMenu*Journal...")

Reading journal file C:/Users/V.Chepuri/OneDrive - Cranfield University/irp/pablo/re_20000/AOA_1/template.jou...

> ;change to correct dir
chdir C:\Users\Usuario\Desktop\CFD_MSc\Publication\data\field_data\homogeneous_sweeps_AoA4\porous_ID0007
Error: Unable to change directory to C:\\Users\\Usuario\\Desktop\\CFD_MSc\\Publication\\data\\field_data\\homogeneous_sweeps_AoA4\\porous_ID0007.\\n
> file/read-case template_medium.cas.h5 Fast-loading "C:\PROGRA~1\ANSYSI~1\v242\fluent\fluent24.2.0\\addons\afd\lib\hdfio.bin"
Done.
Note: Rank = 0: Process affinity not being set (6).

Reading from 37PCL050:"C:\Users\V.Chepuri\OneDrive - Cranfield University\irp\pablo\re_20000\AOA_1\template_medium.cas.h5" in NODE0 mode ...
  Reading mesh ...
      181070 cells,     4 cell zones ...
          36824 mixed cells,  zone id: 2
         108032 mixed cells,  zone id: 4
          27008 mixed cells,  zone id: 12
           9206 mixed cells,  zone id: 11
      309160 faces,    14 face zones ...
          65137 2D interior faces,  zone id: 3
         181145 2D interior faces,  zone id: 5
             42 2D velocity-inlet faces,  zone id: 6
             38 2D pressure-outlet faces,  zone id: 7
             40 2D velocity-inlet faces,  zone id: 8
            458 2D interior faces,  zone id: 9
            456 2D interior faces,  zone id: 10
            228 2D parent-face faces,  zone id: 19
            229 2D parent-face faces,  zone id: 18
             20 2D parent-face faces,  zone id: 17
             19 2D parent-face faces,  zone id: 16
             21 2D parent-face faces,  zone id: 15
          45157 2D parent-face faces,  zone id: 14
          16170 2D parent-face faces,  zone id: 13
      102461 nodes,     1 node zone  ...
  Done.


Building...
     mesh
     materials,
     interface,
     domains,
	mixture
     zones,
	outlet
	inlet
	interior-fluid
	interior-porous
	symmetry
	upper
	lower
	fluid
	porous
WARNING: "Smooth" contours can't be displayed when node-values is set to off. Changing the Coloring type to "Banded".
     parallel,
Done.
OK


Overwrite confirmations (/file/set-batch-options ...)
are on -- will therefore ignore the following journal
Error: invalid command: OK


> 
adjoint/                parallel/               server/
define/                 parametric-study/       solve/
display/                plot/                   surface/
exit                    preferences/            views/
file/                   print-license-usage
mesh/                   report/

> ;modify permeability parameters
define/named-expressions/edit a definition " 0.0 " q q q

> define/named-expressions/edit b definition " 0.0 " q q q

> define/named-expressions/edit c definition " 0.0 " q q q

> define/named-expressions/edit d definition " 0.0 " q q q

> define/named-expressions/edit e1 definition " -5.0 " q q q

> define/named-expressions/edit a2 definition " 0.0 " q q q

> define/named-expressions/edit b2 definition " 0.0 " q q q

> define/named-expressions/edit c2 definition " 0.0 " q q q

> define/named-expressions/edit d2 definition " 0.0 " q q q

> define/named-expressions/edit e2 definition " -5.0 " q q q

> 
adjoint/                parallel/               server/
define/                 parametric-study/       solve/
display/                plot/                   surface/
exit                    preferences/            views/
file/                   print-license-usage
mesh/                   report/

> ;run simulation
solve/initialize/initialize-flow

> solve/iterate 2000

  iter  continuity  x-velocity  y-velocity           k       omega     time/iter
     1  1.0000e+00  3.7087e-08  2.0333e-05  6.5626e-05  6.1072e-04  0:00:00 1999

 turbulent viscosity limited to viscosity ratio of 1.000000e+05 in 36 cells 
     2  1.0000e+00  3.9317e-06  2.1335e-05  6.1289e-05  1.6804e-03  0:00:00 1998

 turbulent viscosity limited to viscosity ratio of 1.000000e+05 in 63 cells 
     3  3.3561e-01  2.5624e-06  2.0443e-05  5.7772e-05  4.2022e-03  0:33:17 1997

 turbulent viscosity limited to viscosity ratio of 1.000000e+05 in 75 cells 
     4  2.7704e-01  2.2652e-06  2.0229e-05  5.5440e-05  1.4339e-03  0:26:37 1996

 turbulent viscosity limited to viscosity ratio of 1.000000e+05 in 83 cells 
     5  1.7387e-01  2.2948e-06  2.0081e-05  5.2716e-05  2.5805e-04  0:21:17 1995

 turbulent viscosity limited to viscosity ratio of 1.000000e+05 in 86 cells 
     6  1.1904e-01  2.2340e-06  1.9944e-05  5.0193e-05  1.9586e-04  0:17:01 1994

 turbulent viscosity limited to viscosity ratio of 1.000000e+05 in 86 cells 
     7  8.1513e-02  2.1717e-06  1.9820e-05  4.7969e-05  8.8083e-05  0:20:15 1993

 turbulent viscosity limited to viscosity ratio of 1.000000e+05 in 82 cells 
     8  5.7236e-02  2.1178e-06  1.9696e-05  4.5977e-05  7.4377e-05  0:16:11 1992

 turbulent viscosity limited to viscosity ratio of 1.000000e+05 in 80 cells 
     9  4.2132e-02  2.0619e-06  1.9594e-05  4.4231e-05  6.6564e-05  0:12:57 1991

 turbulent viscosity limited to viscosity ratio of 1.000000e+05 in 81 cells 
    10  3.1719e-02  2.0169e-06  1.9498e-05  4.2637e-05  6.1095e-05  0:10:21 1990

 turbulent viscosity limited to viscosity ratio of 1.000000e+05 in 79 cells 
    11  2.5005e-02  1.9786e-06  1.9404e-05  4.1175e-05  5.9176e-05  0:08:17 1989

 turbulent viscosity limited to viscosity ratio of 1.000000e+05 in 78 cells 

  iter  continuity  x-velocity  y-velocity           k       omega     time/iter
    12  2.0765e-02  1.9539e-06  1.9306e-05  3.9830e-05  6.0783e-05  0:06:37 1988

 turbulent viscosity limited to viscosity ratio of 1.000000e+05 in 79 cells 
    13  1.6977e-02  1.9255e-06  1.9215e-05  3.8587e-05  6.7019e-05  0:11:55 1987

 turbulent viscosity limited to viscosity ratio of 1.000000e+05 in 79 cells 
    14  1.4526e-02  1.9060e-06  1.9128e-05  3.7445e-05  6.8265e-05  0:09:32 1986

 turbulent viscosity limited to viscosity ratio of 1.000000e+05 in 78 cells 
    15  1.2989e-02  1.8888e-06  1.9036e-05  3.6394e-05  6.4389e-05  0:07:37 1985

 turbulent viscosity limited to viscosity ratio of 1.000000e+05 in 77 cells 
    16  1.1858e-02  1.8738e-06  1.8947e-05  3.5410e-05  6.1008e-05  0:06:05 1984

 turbulent viscosity limited to viscosity ratio of 1.000000e+05 in 77 cells 
    17  1.1396e-02  1.8614e-06  1.8857e-05  3.4490e-05  6.2614e-05  0:04:52 1983

 turbulent viscosity limited to viscosity ratio of 1.000000e+05 in 78 cells 
    18  1.1055e-02  1.8505e-06  1.8767e-05  3.3631e-05  6.3265e-05  0:10:30 1982

 turbulent viscosity limited to viscosity ratio of 1.000000e+05 in 74 cells 
    19  1.0591e-02  1.8403e-06  1.8679e-05  3.2824e-05  6.3824e-05  0:08:24 1981

 turbulent viscosity limited to viscosity ratio of 1.000000e+05 in 74 cells 
    20  1.0384e-02  1.8305e-06  1.8590e-05  3.2063e-05  6.1512e-05  0:06:43 1980

 turbulent viscosity limited to viscosity ratio of 1.000000e+05 in 73 cells 
    21  1.0130e-02  1.8209e-06  1.8503e-05  3.1348e-05  6.0178e-05  0:05:22 1979

 turbulent viscosity limited to viscosity ratio of 1.000000e+05 in 74 cells 
    22  9.8799e-03  1.8114e-06  1.8415e-05  3.0670e-05  5.5886e-05  0:04:18 1978

 turbulent viscosity limited to viscosity ratio of 1.000000e+05 in 75 cells 

  iter  continuity  x-velocity  y-velocity           k       omega     time/iter
    23  9.9461e-03  1.8021e-06  1.8329e-05  3.0023e-05  5.2377e-05  0:03:26 1977

 turbulent viscosity limited to viscosity ratio of 1.000000e+05 in 73 cells 
    24  9.9097e-03  1.7932e-06  1.8243e-05  2.9412e-05  5.0611e-05  0:09:20 1976

 turbulent viscosity limited to viscosity ratio of 1.000000e+05 in 72 cells 
    25  9.7026e-03  1.7847e-06  1.8157e-05  2.8832e-05  4.8626e-05  0:07:28 1975

 turbulent viscosity limited to viscosity ratio of 1.000000e+05 in 71 cells 
    26  9.5695e-03  1.7765e-06  1.8072e-05  2.8279e-05  4.7413e-05  0:05:58 1974

 turbulent viscosity limited to viscosity ratio of 1.000000e+05 in 72 cells 
    27  9.5215e-03  1.7685e-06  1.7987e-05  2.7752e-05  4.6045e-05  0:04:46 1973

 turbulent viscosity limited to viscosity ratio of 1.000000e+05 in 75 cells 
    28  9.4695e-03  1.7607e-06  1.7903e-05  2.7250e-05  4.4218e-05  0:03:49 1972

 turbulent viscosity limited to viscosity ratio of 1.000000e+05 in 75 cells 
    29  9.2870e-03  1.7529e-06  1.7819e-05  2.6771e-05  4.3835e-05  0:09:37 1971

 turbulent viscosity limited to viscosity ratio of 1.000000e+05 in 73 cells 
    30  9.2756e-03  1.7449e-06  1.7736e-05  2.6312e-05  4.2135e-05  0:07:42 1970

 turbulent viscosity limited to viscosity ratio of 1.000000e+05 in 73 cells 
    31  9.1554e-03  1.7369e-06  1.7653e-05  2.5871e-05  4.0760e-05  0:06:09 1969

 turbulent viscosity limited to viscosity ratio of 1.000000e+05 in 73 cells 
    32  9.0529e-03  1.7288e-06  1.7570e-05  2.5448e-05  4.1533e-05  0:04:55 1968

 turbulent viscosity limited to viscosity ratio of 1.000000e+05 in 73 cells 
    33  9.0881e-03  1.7206e-06  1.7488e-05  2.5043e-05  4.0333e-05  0:03:56 1967

 turbulent viscosity limited to viscosity ratio of 1.000000e+05 in 73 cells 

  iter  continuity  x-velocity  y-velocity           k       omega     time/iter
    34  8.9326e-03  1.7125e-06  1.7407e-05  2.4653e-05  3.8873e-05  0:03:09 1966

 turbulent viscosity limited to viscosity ratio of 1.000000e+05 in 74 cells 
    35  8.8381e-03  1.7045e-06  1.7325e-05  2.4278e-05  3.9305e-05  0:09:04 1965

 turbulent viscosity limited to viscosity ratio of 1.000000e+05 in 72 cells 
    36  8.7590e-03  1.6967e-06  1.7245e-05  2.3916e-05  4.2949e-05  0:07:15 1964

 turbulent viscosity limited to viscosity ratio of 1.000000e+05 in 71 cells 
    37  8.8167e-03  1.6889e-06  1.7164e-05  2.3570e-05  4.2636e-05  0:05:48 1963

 turbulent viscosity limited to viscosity ratio of 1.000000e+05 in 70 cells 
    38  8.9347e-03  1.6812e-06  1.7085e-05  2.3233e-05  4.2588e-05  0:04:38 1962

 turbulent viscosity limited to viscosity ratio of 1.000000e+05 in 71 cells 
    39  8.9033e-03  1.6736e-06  1.7006e-05  2.2927e-05  4.1368e-05  0:03:42 1961

 turbulent viscosity limited to viscosity ratio of 1.000000e+05 in 70 cells 
    40  8.8746e-03  1.6659e-06  1.6927e-05  2.2614e-05  4.4750e-05  0:02:58 1960

 turbulent viscosity limited to viscosity ratio of 1.000000e+05 in 70 cells 
    41  9.0066e-03  1.6584e-06  1.6848e-05  2.2328e-05  4.6057e-05  0:08:54 1959

 turbulent viscosity limited to viscosity ratio of 1.000000e+05 in 69 cells 
    42  9.2507e-03  1.6508e-06  1.6771e-05  2.2052e-05  4.8000e-05  0:07:07 1958

 turbulent viscosity limited to viscosity ratio of 1.000000e+05 in 69 cells 
    43  9.6296e-03  1.6432e-06  1.6693e-05  2.1785e-05  4.4667e-05  0:05:41 1957

 turbulent viscosity limited to viscosity ratio of 1.000000e+05 in 72 cells 
    44  9.6622e-03  1.6357e-06  1.6616e-05  2.1525e-05  3.9541e-05  0:04:33 1956

 turbulent viscosity limited to viscosity ratio of 1.000000e+05 in 72 cells 

  iter  continuity  x-velocity  y-velocity           k       omega     time/iter
    45  9.6734e-03  1.6281e-06  1.6539e-05  2.1257e-05  4.0260e-05  0:03:38 1955

 turbulent viscosity limited to viscosity ratio of 1.000000e+05 in 71 cells 
    46  9.7225e-03  1.6206e-06  1.6463e-05  2.1010e-05  4.2310e-05  0:02:55 1954

 turbulent viscosity limited to viscosity ratio of 1.000000e+05 in 67 cells 
    47  9.8353e-03  1.6131e-06  1.6387e-05  2.0769e-05  4.5838e-05  0:08:50 1953

 turbulent viscosity limited to viscosity ratio of 1.000000e+05 in 66 cells 
    48  1.0236e-02  1.6056e-06  1.6313e-05  2.0535e-05  5.0349e-05  0:07:04 1952

 turbulent viscosity limited to viscosity ratio of 1.000000e+05 in 64 cells 
    49  1.0325e-02  1.5981e-06  1.6238e-05  2.0306e-05  5.3227e-05  0:05:39 1951

 turbulent viscosity limited to viscosity ratio of 1.000000e+05 in 65 cells 
    50  1.0469e-02  1.5907e-06  1.6163e-05  2.0085e-05  5.1141e-05  0:04:31 1950

 turbulent viscosity limited to viscosity ratio of 1.000000e+05 in 63 cells 
    51  1.0520e-02  1.5832e-06  1.6089e-05  1.9869e-05  4.6811e-05  0:03:37 1949

 turbulent viscosity limited to viscosity ratio of 1.000000e+05 in 64 cells 
    52  1.0865e-02  1.5759e-06  1.6015e-05  1.9657e-05  4.4692e-05  0:02:53 1948

 turbulent viscosity limited to viscosity ratio of 1.000000e+05 in 62 cells 
    53  1.0660e-02  1.5685e-06  1.5942e-05  1.9450e-05  4.2955e-05  0:08:48 1947

 turbulent viscosity limited to viscosity ratio of 1.000000e+05 in 61 cells 
    54  1.0908e-02  1.5611e-06  1.5869e-05  1.9248e-05  3.7347e-05  0:07:02 1946

 turbulent viscosity limited to viscosity ratio of 1.000000e+05 in 60 cells 
    55  1.0673e-02  1.5539e-06  1.5796e-05  1.9048e-05  3.5953e-05  0:05:38 1945

 turbulent viscosity limited to viscosity ratio of 1.000000e+05 in 61 cells 

  iter  continuity  x-velocity  y-velocity           k       omega     time/iter
    56  1.0337e-02  1.5466e-06  1.5724e-05  1.8856e-05  3.5864e-05  0:04:30 1944

 turbulent viscosity limited to viscosity ratio of 1.000000e+05 in 59 cells 
    57  1.0044e-02  1.5393e-06  1.5651e-05  1.8665e-05  3.5282e-05  0:10:04 1943

 turbulent viscosity limited to viscosity ratio of 1.000000e+05 in 60 cells 
    58  1.0226e-02  1.5321e-06  1.5580e-05  1.8475e-05  3.5117e-05  0:08:03 1942

 turbulent viscosity limited to viscosity ratio of 1.000000e+05 in 60 cells 
    59  1.0707e-02  1.5249e-06  1.5508e-05  1.8296e-05  3.3918e-05  0:06:26 1941

 turbulent viscosity limited to viscosity ratio of 1.000000e+05 in 60 cells 
    60  1.0619e-02  1.5177e-06  1.5437e-05  1.8135e-05  3.3099e-05  0:05:09 1940

 turbulent viscosity limited to viscosity ratio of 1.000000e+05 in 60 cells 
    61  1.0342e-02  1.5106e-06  1.5366e-05  1.7979e-05  3.2566e-05  0:04:07 1939

 turbulent viscosity limited to viscosity ratio of 1.000000e+05 in 60 cells 
    62  1.0362e-02  1.5035e-06  1.5296e-05  1.7818e-05  3.2240e-05  0:09:45 1938

 turbulent viscosity limited to viscosity ratio of 1.000000e+05 in 59 cells 
    63  1.0214e-02  1.4964e-06  1.5225e-05  1.7648e-05  3.1958e-05  0:07:48 1937

 turbulent viscosity limited to viscosity ratio of 1.000000e+05 in 59 cells 
    64  1.0140e-02  1.4893e-06  1.5156e-05  1.7471e-05  3.1837e-05  0:06:14 1936

 turbulent viscosity limited to viscosity ratio of 1.000000e+05 in 60 cells 
    65  1.0147e-02  1.4823e-06  1.5086e-05  1.7284e-05  3.2503e-05  0:04:59 1935

 turbulent viscosity limited to viscosity ratio of 1.000000e+05 in 61 cells 
    66  1.0004e-02  1.4754e-06  1.5017e-05  1.7105e-05  3.2881e-05  0:03:59 1934

 turbulent viscosity limited to viscosity ratio of 1.000000e+05 in 59 cells 

  iter  continuity  x-velocity  y-velocity           k       omega     time/iter
    67  9.8294e-03  1.4683e-06  1.4948e-05  1.6959e-05  3.1612e-05  0:03:11 1933

 turbulent viscosity limited to viscosity ratio of 1.000000e+05 in 58 cells 
    68  9.8363e-03  1.4614e-06  1.4879e-05  1.6816e-05  3.0209e-05  0:08:59 1932

 turbulent viscosity limited to viscosity ratio of 1.000000e+05 in 60 cells 
    69  9.9628e-03  1.4544e-06  1.4811e-05  1.6677e-05  4.2763e-05  0:07:11 1931

 turbulent viscosity limited to viscosity ratio of 1.000000e+05 in 62 cells 
    70  1.0105e-02  1.4475e-06  1.4743e-05  1.6513e-05  3.2654e-05  0:05:45 1930

 turbulent viscosity limited to viscosity ratio of 1.000000e+05 in 61 cells 
    71  1.0132e-02  1.4405e-06  1.4676e-05  1.6316e-05  2.8802e-05  0:04:36 1929

 turbulent viscosity limited to viscosity ratio of 1.000000e+05 in 61 cells 
    72  9.6873e-03  1.4335e-06  1.4609e-05  1.6141e-05  2.7516e-05  0:03:40 1928

 turbulent viscosity limited to viscosity ratio of 1.000000e+05 in 62 cells 
    73  9.5264e-03  1.4266e-06  1.4542e-05  1.5990e-05  2.7229e-05  0:02:56 1927

 turbulent viscosity limited to viscosity ratio of 1.000000e+05 in 62 cells 
    74  9.3747e-03  1.4198e-06  1.4475e-05  1.5859e-05  2.7126e-05  0:08:46 1926

 turbulent viscosity limited to viscosity ratio of 1.000000e+05 in 62 cells 
    75  9.3267e-03  1.4129e-06  1.4409e-05  1.5742e-05  2.7565e-05  0:07:01 1925

 turbulent viscosity limited to viscosity ratio of 1.000000e+05 in 63 cells 
    76  9.2536e-03  1.4061e-06  1.4343e-05  1.5573e-05  2.9176e-05  0:05:36 1924

 turbulent viscosity limited to viscosity ratio of 1.000000e+05 in 62 cells 
    77  9.2267e-03  1.3993e-06  1.4277e-05  1.5383e-05  2.7289e-05  0:04:29 1923

 turbulent viscosity limited to viscosity ratio of 1.000000e+05 in 63 cells 

  iter  continuity  x-velocity  y-velocity           k       omega     time/iter
    78  8.9361e-03  1.3925e-06  1.4212e-05  1.5221e-05  2.5947e-05  0:03:35 1922

 turbulent viscosity limited to viscosity ratio of 1.000000e+05 in 62 cells 
    79  8.5417e-03  1.3858e-06  1.4149e-05  1.5079e-05  2.4923e-05  0:02:52 1921

 turbulent viscosity limited to viscosity ratio of 1.000000e+05 in 63 cells 
    80  8.5270e-03  1.3799e-06  1.4083e-05  1.4961e-05  2.5316e-05  0:08:41 1920

 turbulent viscosity limited to viscosity ratio of 1.000000e+05 in 64 cells 
    81  8.7912e-03  1.3734e-06  1.4019e-05  1.4854e-05  2.6898e-05  0:06:57 1919

 turbulent viscosity limited to viscosity ratio of 1.000000e+05 in 64 cells 
    82  8.8786e-03  1.3650e-06  1.3957e-05  1.4698e-05  2.6743e-05  0:05:33 1918

 turbulent viscosity limited to viscosity ratio of 1.000000e+05 in 66 cells 
    83  8.6600e-03  1.3594e-06  1.3891e-05  1.4537e-05  2.4790e-05  0:04:27 1917

 turbulent viscosity limited to viscosity ratio of 1.000000e+05 in 66 cells 
    84  8.4845e-03  1.3518e-06  1.3829e-05  1.4397e-05  2.4751e-05  0:03:33 1916

 turbulent viscosity limited to viscosity ratio of 1.000000e+05 in 69 cells 
    85  8.1213e-03  1.3459e-06  1.3766e-05  1.4263e-05  2.4802e-05  0:02:50 1915

 turbulent viscosity limited to viscosity ratio of 1.000000e+05 in 68 cells 
    86  7.8078e-03  1.3400e-06  1.3702e-05  1.4133e-05  2.4431e-05  0:08:39 1914

 turbulent viscosity limited to viscosity ratio of 1.000000e+05 in 68 cells 
    87  7.4540e-03  1.3322e-06  1.3640e-05  1.4003e-05  2.4811e-05  0:06:55 1913

 turbulent viscosity limited to viscosity ratio of 1.000000e+05 in 69 cells 
    88  7.2206e-03  1.3268e-06  1.3577e-05  1.3882e-05  2.4285e-05  0:05:32 1912

 turbulent viscosity limited to viscosity ratio of 1.000000e+05 in 71 cells 

  iter  continuity  x-velocity  y-velocity           k       omega     time/iter
    89  7.1408e-03  1.3194e-06  1.3518e-05  1.3768e-05  2.2413e-05  0:04:25 1911

 turbulent viscosity limited to viscosity ratio of 1.000000e+05 in 73 cells 
    90  7.1121e-03  1.3134e-06  1.3453e-05  1.3664e-05  2.1290e-05  0:03:32 1910

 turbulent viscosity limited to viscosity ratio of 1.000000e+05 in 73 cells 
    91  6.9425e-03  1.3074e-06  1.3392e-05  1.3564e-05  2.0302e-05  0:02:50 1909

 turbulent viscosity limited to viscosity ratio of 1.000000e+05 in 73 cells 
    92  6.7531e-03  1.2998e-06  1.3332e-05  1.3473e-05  1.9658e-05  0:08:37 1908

 turbulent viscosity limited to viscosity ratio of 1.000000e+05 in 74 cells 
    93  6.6987e-03  1.2941e-06  1.3270e-05  1.3379e-05  1.8766e-05  0:06:54 1907

 turbulent viscosity limited to viscosity ratio of 1.000000e+05 in 76 cells 
    94  6.5359e-03  1.2882e-06  1.3209e-05  1.3287e-05  1.8963e-05  0:05:31 1906

 turbulent viscosity limited to viscosity ratio of 1.000000e+05 in 76 cells 
    95  6.4772e-03  1.2806e-06  1.3151e-05  1.3197e-05  1.8588e-05  0:04:24 1905

 turbulent viscosity limited to viscosity ratio of 1.000000e+05 in 76 cells 
    96  6.3001e-03  1.2749e-06  1.3089e-05  1.3049e-05  1.7858e-05  0:03:31 1904

 turbulent viscosity limited to viscosity ratio of 1.000000e+05 in 77 cells 
    97  6.3569e-03  1.2692e-06  1.3029e-05  1.2945e-05  1.7053e-05  0:02:49 1903

 turbulent viscosity limited to viscosity ratio of 1.000000e+05 in 80 cells 
    98  6.3553e-03  1.2616e-06  1.2972e-05  1.2845e-05  1.6849e-05  0:08:36 1902

 turbulent viscosity limited to viscosity ratio of 1.000000e+05 in 80 cells 
    99  6.2960e-03  1.2561e-06  1.2911e-05  1.2757e-05  1.6796e-05  0:06:52 1901

 turbulent viscosity limited to viscosity ratio of 1.000000e+05 in 79 cells 

  iter  continuity  x-velocity  y-velocity           k       omega     time/iter
   100  6.3634e-03  1.2499e-06  1.2853e-05  1.2695e-05  1.6851e-05  0:05:30 1900

 turbulent viscosity limited to viscosity ratio of 1.000000e+05 in 80 cells 
   101  6.4514e-03  1.2443e-06  1.2793e-05  1.2676e-05  1.7037e-05  0:04:24 1899

 turbulent viscosity limited to viscosity ratio of 1.000000e+05 in 81 cells 
   102  6.5135e-03  1.2367e-06  1.2736e-05  1.2633e-05  1.7106e-05  0:09:50 1898

 turbulent viscosity limited to viscosity ratio of 1.000000e+05 in 84 cells 
   103  6.4947e-03  1.2316e-06  1.2678e-05  1.2486e-05  1.7396e-05  0:07:52 1897

 turbulent viscosity limited to viscosity ratio of 1.000000e+05 in 84 cells 
   104  6.2894e-03  1.2247e-06  1.2623e-05  1.2439e-05  1.8104e-05  0:06:17 1896

 turbulent viscosity limited to viscosity ratio of 1.000000e+05 in 86 cells 
   105  6.2789e-03  1.2192e-06  1.2563e-05  1.2455e-05  1.7922e-05  0:05:02 1895

 turbulent viscosity limited to viscosity ratio of 1.000000e+05 in 89 cells 
   106  6.5096e-03  1.2137e-06  1.2506e-05  1.2364e-05  1.8436e-05  0:04:01 1894

 turbulent viscosity limited to viscosity ratio of 1.000000e+05 in 90 cells 
   107  6.7130e-03  1.2064e-06  1.2451e-05  1.2246e-05  1.7559e-05  0:03:13 1893

 turbulent viscosity limited to viscosity ratio of 1.000000e+05 in 88 cells 
   108  6.5868e-03  1.2014e-06  1.2393e-05  1.2064e-05  1.7927e-05  0:08:53 1892

 turbulent viscosity limited to viscosity ratio of 1.000000e+05 in 90 cells 
   109  6.2718e-03  1.1944e-06  1.2338e-05  1.1926e-05  1.6179e-05  0:07:06 1891

 turbulent viscosity limited to viscosity ratio of 1.000000e+05 in 89 cells 
   110  6.2743e-03  1.1889e-06  1.2281e-05  1.1857e-05  1.6102e-05  0:05:41 1890

 turbulent viscosity limited to viscosity ratio of 1.000000e+05 in 90 cells 

  iter  continuity  x-velocity  y-velocity           k       omega     time/iter
   111  6.3442e-03  1.1834e-06  1.2225e-05  1.1827e-05  1.6183e-05  0:04:32 1889

 turbulent viscosity limited to viscosity ratio of 1.000000e+05 in 92 cells 
   112  6.5565e-03  1.1763e-06  1.2170e-05  1.1818e-05  1.6386e-05  0:03:38 1888

 turbulent viscosity limited to viscosity ratio of 1.000000e+05 in 89 cells 
   113  6.5919e-03  1.1714e-06  1.2115e-05  1.1696e-05  1.6715e-05  0:02:54 1887

 turbulent viscosity limited to viscosity ratio of 1.000000e+05 in 90 cells 
   114  6.3424e-03  1.1647e-06  1.2062e-05  1.1537e-05  1.5018e-05  0:08:36 1886

 turbulent viscosity limited to viscosity ratio of 1.000000e+05 in 90 cells 
   115  5.9983e-03  1.1593e-06  1.2005e-05  1.1436e-05  1.4842e-05  0:06:53 1885

 turbulent viscosity limited to viscosity ratio of 1.000000e+05 in 90 cells 
   116  5.8989e-03  1.1539e-06  1.1951e-05  1.1379e-05  1.5177e-05  0:05:30 1884

 turbulent viscosity limited to viscosity ratio of 1.000000e+05 in 88 cells 
   117  5.9025e-03  1.1469e-06  1.1899e-05  1.1353e-05  1.4845e-05  0:04:24 1883

 turbulent viscosity limited to viscosity ratio of 1.000000e+05 in 90 cells 
   118  5.8076e-03  1.1418e-06  1.1843e-05  1.1306e-05  1.5064e-05  0:03:31 1882

 turbulent viscosity limited to viscosity ratio of 1.000000e+05 in 91 cells 
   119  5.8827e-03  1.1365e-06  1.1790e-05  1.1188e-05  1.4307e-05  0:02:49 1881

 turbulent viscosity limited to viscosity ratio of 1.000000e+05 in 91 cells 
   120  5.7523e-03  1.1295e-06  1.1739e-05  1.1095e-05  1.4090e-05  0:08:31 1880

 turbulent viscosity limited to viscosity ratio of 1.000000e+05 in 91 cells 
   121  5.6348e-03  1.1244e-06  1.1684e-05  1.1016e-05  1.4035e-05  0:06:49 1879

 turbulent viscosity limited to viscosity ratio of 1.000000e+05 in 90 cells 

  iter  continuity  x-velocity  y-velocity           k       omega     time/iter
   122  5.5426e-03  1.1187e-06  1.1632e-05  1.0942e-05  1.4035e-05  0:05:27 1878

 turbulent viscosity limited to viscosity ratio of 1.000000e+05 in 91 cells 
   123  5.3750e-03  1.1131e-06  1.1579e-05  1.0869e-05  1.4114e-05  0:04:21 1877

 turbulent viscosity limited to viscosity ratio of 1.000000e+05 in 91 cells 
   124  5.2355e-03  1.1073e-06  1.1527e-05  1.0790e-05  1.4351e-05  0:03:29 1876

 turbulent viscosity limited to viscosity ratio of 1.000000e+05 in 91 cells 
   125  5.1042e-03  1.1016e-06  1.1475e-05  1.0705e-05  1.3712e-05  0:02:47 1875

 turbulent viscosity limited to viscosity ratio of 1.000000e+05 in 91 cells 
   126  5.0814e-03  1.0959e-06  1.1424e-05  1.0633e-05  1.3592e-05  0:08:28 1874

 turbulent viscosity limited to viscosity ratio of 1.000000e+05 in 91 cells 
   127  5.0709e-03  1.0903e-06  1.1372e-05  1.0566e-05  1.3536e-05  0:06:46 1873

 turbulent viscosity limited to viscosity ratio of 1.000000e+05 in 91 cells 
   128  5.0767e-03  1.0848e-06  1.1321e-05  1.0499e-05  1.3460e-05  0:05:25 1872

 turbulent viscosity limited to viscosity ratio of 1.000000e+05 in 91 cells 
   129  5.0358e-03  1.0793e-06  1.1270e-05  1.0433e-05  1.3389e-05  0:04:20 1871

 turbulent viscosity limited to viscosity ratio of 1.000000e+05 in 92 cells 
   130  4.9849e-03  1.0738e-06  1.1220e-05  1.0368e-05  1.3300e-05  0:03:28 1870

 turbulent viscosity limited to viscosity ratio of 1.000000e+05 in 92 cells 
   131  4.9524e-03  1.0683e-06  1.1169e-05  1.0302e-05  1.3090e-05  0:02:46 1869

 turbulent viscosity limited to viscosity ratio of 1.000000e+05 in 92 cells 
   132  5.0337e-03  1.0628e-06  1.1119e-05  1.0237e-05  1.2539e-05  0:08:26 1868

 turbulent viscosity limited to viscosity ratio of 1.000000e+05 in 92 cells 

  iter  continuity  x-velocity  y-velocity           k       omega     time/iter
   133  5.1249e-03  1.0579e-06  1.1069e-05  1.0172e-05  1.2462e-05  0:06:45 1867

 turbulent viscosity limited to viscosity ratio of 1.000000e+05 in 92 cells 
   134  5.0788e-03  1.0513e-06  1.1020e-05  1.0108e-05  1.2305e-05  0:05:24 1866

 turbulent viscosity limited to viscosity ratio of 1.000000e+05 in 91 cells 
   135  5.0263e-03  1.0469e-06  1.0970e-05  1.0045e-05  1.2266e-05  0:04:19 1865

 turbulent viscosity limited to viscosity ratio of 1.000000e+05 in 91 cells 
   136  4.9159e-03  1.0409e-06  1.0923e-05  9.9821e-06  1.2247e-05  0:03:27 1864

 turbulent viscosity limited to viscosity ratio of 1.000000e+05 in 92 cells 
   137  4.8188e-03  1.0361e-06  1.0872e-05  9.9197e-06  1.2225e-05  0:02:46 1863

 turbulent viscosity limited to viscosity ratio of 1.000000e+05 in 92 cells 
   138  4.8223e-03  1.0311e-06  1.0824e-05  9.8576e-06  1.2203e-05  0:08:25 1862

 turbulent viscosity limited to viscosity ratio of 1.000000e+05 in 92 cells 
   139  4.8486e-03  1.0247e-06  1.0777e-05  9.7960e-06  1.2183e-05  0:06:44 1861

 turbulent viscosity limited to viscosity ratio of 1.000000e+05 in 92 cells 
   140  4.8159e-03  1.0201e-06  1.0727e-05  9.7347e-06  1.2162e-05  0:05:23 1860

 turbulent viscosity limited to viscosity ratio of 1.000000e+05 in 92 cells 
   141  4.8528e-03  1.0152e-06  1.0679e-05  9.6738e-06  1.2138e-05  0:04:18 1859

 turbulent viscosity limited to viscosity ratio of 1.000000e+05 in 90 cells 
   142  4.8528e-03  1.0089e-06  1.0633e-05  9.6133e-06  1.2117e-05  0:03:26 1858

 turbulent viscosity limited to viscosity ratio of 1.000000e+05 in 90 cells 
   143  4.9101e-03  1.0046e-06  1.0584e-05  9.5532e-06  1.2095e-05  0:02:45 1857

 turbulent viscosity limited to viscosity ratio of 1.000000e+05 in 91 cells 

  iter  continuity  x-velocity  y-velocity           k       omega     time/iter
   144  4.8863e-03  9.9867e-07  1.0538e-05  9.4934e-06  1.2064e-05  0:02:12 1856

 turbulent viscosity limited to viscosity ratio of 1.000000e+05 in 91 cells 
   145  4.8107e-03  9.9400e-07  1.0490e-05  9.4341e-06  1.2031e-05  0:07:56 1855

 turbulent viscosity limited to viscosity ratio of 1.000000e+05 in 92 cells 
   146  4.8994e-03  9.8929e-07  1.0443e-05  9.3751e-06  1.1997e-05  0:06:21 1854

 turbulent viscosity limited to viscosity ratio of 1.000000e+05 in 92 cells 
   147  4.8914e-03  9.8312e-07  1.0397e-05  9.3165e-06  1.1984e-05  0:05:05 1853

 turbulent viscosity limited to viscosity ratio of 1.000000e+05 in 92 cells 
   148  4.8749e-03  9.7895e-07  1.0350e-05  9.2582e-06  1.1982e-05  0:04:04 1852

 turbulent viscosity limited to viscosity ratio of 1.000000e+05 in 93 cells 
   149  4.9029e-03  9.7305e-07  1.0306e-05  9.2004e-06  1.1961e-05  0:09:25 1851

 turbulent viscosity limited to viscosity ratio of 1.000000e+05 in 94 cells 
   150  4.9552e-03  9.6882e-07  1.0259e-05  9.1428e-06  1.1880e-05  0:07:32 1850

 turbulent viscosity limited to viscosity ratio of 1.000000e+05 in 94 cells 
   151  4.9562e-03  9.6301e-07  1.0214e-05  9.0857e-06  1.1843e-05  0:06:01 1849

 turbulent viscosity limited to viscosity ratio of 1.000000e+05 in 94 cells 
   152  4.9222e-03  9.5840e-07  1.0168e-05  9.0290e-06  1.1813e-05  0:04:49 1848

 turbulent viscosity limited to viscosity ratio of 1.000000e+05 in 91 cells 
   153  4.8952e-03  9.5383e-07  1.0122e-05  8.9725e-06  1.1796e-05  0:03:51 1847

 turbulent viscosity limited to viscosity ratio of 1.000000e+05 in 91 cells 
   154  4.9734e-03  9.4792e-07  1.0078e-05  8.9166e-06  1.1781e-05  0:03:05 1846

 turbulent viscosity limited to viscosity ratio of 1.000000e+05 in 91 cells 

  iter  continuity  x-velocity  y-velocity           k       omega     time/iter
   155  4.9779e-03  9.4390e-07  1.0032e-05  8.8612e-06  1.1775e-05  0:08:37 1845

 turbulent viscosity limited to viscosity ratio of 1.000000e+05 in 91 cells 
   156  5.1422e-03  9.3818e-07  9.9898e-06  8.8062e-06  1.1766e-05  0:06:53 1844

 turbulent viscosity limited to viscosity ratio of 1.000000e+05 in 91 cells 
   157  5.1321e-03  9.3373e-07  9.9437e-06  8.7517e-06  1.1768e-05  0:05:30 1843

 turbulent viscosity limited to viscosity ratio of 1.000000e+05 in 91 cells 
   158  5.3716e-03  9.2927e-07  9.8995e-06  8.6978e-06  1.1758e-05  0:04:24 1842

 turbulent viscosity limited to viscosity ratio of 1.000000e+05 in 91 cells 
   159  5.3052e-03  9.2340e-07  9.8568e-06  8.6444e-06  1.1743e-05  0:03:31 1841

 turbulent viscosity limited to viscosity ratio of 1.000000e+05 in 92 cells 
   160  5.4396e-03  9.1954e-07  9.8121e-06  8.5914e-06  1.1767e-05  0:02:49 1840

 turbulent viscosity limited to viscosity ratio of 1.000000e+05 in 91 cells 
   161  5.3732e-03  9.1393e-07  9.7694e-06  8.5384e-06  1.1866e-05  0:08:23 1839

 turbulent viscosity limited to viscosity ratio of 1.000000e+05 in 91 cells 
   162  5.5943e-03  9.1000e-07  9.7255e-06  8.4813e-06  1.1804e-05  0:06:42 1838

 turbulent viscosity limited to viscosity ratio of 1.000000e+05 in 90 cells 
   163  5.4300e-03  9.0444e-07  9.6844e-06  8.4274e-06  1.1695e-05  0:05:21 1837

 turbulent viscosity limited to viscosity ratio of 1.000000e+05 in 92 cells 
   164  5.4603e-03  9.0046e-07  9.6399e-06  8.3748e-06  1.1635e-05  0:04:17 1836

 turbulent viscosity limited to viscosity ratio of 1.000000e+05 in 92 cells 
   165  5.3552e-03  8.9496e-07  9.5979e-06  8.3226e-06  1.1619e-05  0:03:25 1835

 turbulent viscosity limited to viscosity ratio of 1.000000e+05 in 92 cells 

  iter  continuity  x-velocity  y-velocity           k       omega     time/iter
   166  5.4056e-03  8.9064e-07  9.5549e-06  8.2707e-06  1.1585e-05  0:02:44 1834

 turbulent viscosity limited to viscosity ratio of 1.000000e+05 in 92 cells 
   167  5.3703e-03  8.8636e-07  9.5122e-06  8.2192e-06  1.1576e-05  0:08:18 1833

 turbulent viscosity limited to viscosity ratio of 1.000000e+05 in 92 cells 
   168  5.5627e-03  8.8080e-07  9.4706e-06  8.1680e-06  1.1553e-05  0:06:38 1832

 turbulent viscosity limited to viscosity ratio of 1.000000e+05 in 92 cells 
   169  5.5234e-03  8.7702e-07  9.4284e-06  8.1173e-06  1.1548e-05  0:05:18 1831

 turbulent viscosity limited to viscosity ratio of 1.000000e+05 in 91 cells 
   170  5.8084e-03  8.7165e-07  9.3886e-06  8.0668e-06  1.1535e-05  0:04:15 1830

 turbulent viscosity limited to viscosity ratio of 1.000000e+05 in 91 cells 
   171  5.7442e-03  8.6782e-07  9.3459e-06  8.0168e-06  1.1536e-05  0:03:24 1829

 turbulent viscosity limited to viscosity ratio of 1.000000e+05 in 92 cells 
   172  5.9879e-03  8.6254e-07  9.3053e-06  7.9671e-06  1.1533e-05  0:08:48 1828

 turbulent viscosity limited to viscosity ratio of 1.000000e+05 in 92 cells 
   173  5.8346e-03  8.5871e-07  9.2637e-06  7.9179e-06  1.1538e-05  0:07:02 1827

 turbulent viscosity limited to viscosity ratio of 1.000000e+05 in 92 cells 
   174  6.1030e-03  8.5393e-07  9.2230e-06  7.8693e-06  1.1536e-05  0:05:38 1826

 turbulent viscosity limited to viscosity ratio of 1.000000e+05 in 90 cells 
   175  5.9304e-03  8.4858e-07  9.1837e-06  7.8211e-06  1.1550e-05  0:04:30 1825

 turbulent viscosity limited to viscosity ratio of 1.000000e+05 in 90 cells 
   176  6.2080e-03  8.4528e-07  9.1416e-06  7.7733e-06  1.1571e-05  0:03:36 1824

 turbulent viscosity limited to viscosity ratio of 1.000000e+05 in 90 cells 

  iter  continuity  x-velocity  y-velocity           k       omega     time/iter
   177  6.2091e-03  8.4079e-07  9.1017e-06  7.7261e-06  1.1619e-05  0:02:53 1823

 turbulent viscosity limited to viscosity ratio of 1.000000e+05 in 89 cells 
   178  6.5622e-03  8.3538e-07  9.0620e-06  7.6792e-06  1.1720e-05  0:08:22 1822

 turbulent viscosity limited to viscosity ratio of 1.000000e+05 in 89 cells 
   179  6.5214e-03  8.3200e-07  9.0215e-06  7.6316e-06  1.1839e-05  0:06:42 1821

 turbulent viscosity limited to viscosity ratio of 1.000000e+05 in 90 cells 
   180  6.6116e-03  8.2748e-07  8.9823e-06  7.5837e-06  1.1610e-05  0:05:21 1820

 turbulent viscosity limited to viscosity ratio of 1.000000e+05 in 92 cells 
   181  6.4888e-03  8.2211e-07  8.9440e-06  7.5363e-06  1.1588e-05  0:04:17 1819

 turbulent viscosity limited to viscosity ratio of 1.000000e+05 in 92 cells 
   182  6.5153e-03  8.1884e-07  8.9034e-06  7.4903e-06  1.1593e-05  0:03:25 1818

 turbulent viscosity limited to viscosity ratio of 1.000000e+05 in 93 cells 
   183  6.4884e-03  8.1440e-07  8.8645e-06  7.4447e-06  1.1636e-05  0:02:44 1817

 turbulent viscosity limited to viscosity ratio of 1.000000e+05 in 99 cells 
   184  6.6538e-03  8.0937e-07  8.8255e-06  7.3994e-06  1.1745e-05  0:08:14 1816

 turbulent viscosity limited to viscosity ratio of 1.000000e+05 in 98 cells 
   185  6.5914e-03  8.0504e-07  8.7864e-06  7.3548e-06  1.1516e-05  0:06:35 1815

 turbulent viscosity limited to viscosity ratio of 1.000000e+05 in 98 cells 
   186  6.6377e-03  8.0114e-07  8.7477e-06  7.3100e-06  1.1375e-05  0:05:16 1814

 turbulent viscosity limited to viscosity ratio of 1.000000e+05 in 98 cells 
   187  6.6637e-03  7.9706e-07  8.7093e-06  7.2660e-06  1.1429e-05  0:04:13 1813

 turbulent viscosity limited to viscosity ratio of 1.000000e+05 in 100 cells 

  iter  continuity  x-velocity  y-velocity           k       omega     time/iter
   188  6.7944e-03  7.9287e-07  8.6712e-06  7.2226e-06  1.1396e-05  0:03:22 1812

 turbulent viscosity limited to viscosity ratio of 1.000000e+05 in 101 cells 
   189  6.8047e-03  7.8854e-07  8.6333e-06  7.1789e-06  1.1195e-05  0:02:42 1811

 turbulent viscosity limited to viscosity ratio of 1.000000e+05 in 102 cells 
   190  6.9934e-03  7.8424e-07  8.5956e-06  7.1360e-06  1.1159e-05  0:02:09 1810

 turbulent viscosity limited to viscosity ratio of 1.000000e+05 in 103 cells 
   191  6.9986e-03  7.8000e-07  8.5580e-06  7.0935e-06  1.1089e-05  0:07:45 1809

 turbulent viscosity limited to viscosity ratio of 1.000000e+05 in 103 cells 
   192  7.2685e-03  7.7588e-07  8.5206e-06  7.0514e-06  1.1041e-05  0:06:12 1808

 turbulent viscosity limited to viscosity ratio of 1.000000e+05 in 104 cells 
   193  7.3544e-03  7.7182e-07  8.4834e-06  7.0096e-06  1.0896e-05  0:04:57 1807

 turbulent viscosity limited to viscosity ratio of 1.000000e+05 in 104 cells 
   194  7.7691e-03  7.6773e-07  8.4465e-06  6.9683e-06  1.1127e-05  0:03:58 1806

 turbulent viscosity limited to viscosity ratio of 1.000000e+05 in 105 cells 
   195  7.2682e-03  7.6367e-07  8.4096e-06  6.9273e-06  1.1152e-05  0:09:11 1805

 turbulent viscosity limited to viscosity ratio of 1.000000e+05 in 107 cells 
   196  8.0860e-03  7.5977e-07  8.3730e-06  6.8868e-06  1.0933e-05  0:07:21 1804

 turbulent viscosity limited to viscosity ratio of 1.000000e+05 in 108 cells 
   197  9.0470e-03  7.5574e-07  8.3368e-06  6.8481e-06  1.2258e-05  0:05:52 1803

 turbulent viscosity limited to viscosity ratio of 1.000000e+05 in 105 cells 
   198  9.7686e-03  7.5175e-07  8.3007e-06  6.8080e-06  1.3551e-05  0:04:42 1802

 turbulent viscosity limited to viscosity ratio of 1.000000e+05 in 109 cells 

  iter  continuity  x-velocity  y-velocity           k       omega     time/iter
   199  9.9167e-03  7.4836e-07  8.2649e-06  6.7692e-06  1.2108e-05  0:03:45 1801

 turbulent viscosity limited to viscosity ratio of 1.000000e+05 in 108 cells 
   200  1.2047e-02  7.4436e-07  8.2292e-06  6.7316e-06  1.3294e-05  0:03:00 1800

 turbulent viscosity limited to viscosity ratio of 1.000000e+05 in 105 cells 
   201  1.3011e-02  7.4050e-07  8.1936e-06  6.6904e-06  1.4279e-05  0:08:24 1799

 turbulent viscosity limited to viscosity ratio of 1.000000e+05 in 107 cells 
   202  1.1552e-02  7.3745e-07  8.1588e-06  6.6536e-06  1.1295e-05  0:06:43 1798

 turbulent viscosity limited to viscosity ratio of 1.000000e+05 in 107 cells 
   203  1.4409e-02  7.3341e-07  8.1237e-06  6.6171e-06  1.2459e-05  0:05:22 1797

 turbulent viscosity limited to viscosity ratio of 1.000000e+05 in 105 cells 
   204  1.5323e-02  7.2990e-07  8.0881e-06  6.5776e-06  1.3239e-05  0:04:18 1796

 turbulent viscosity limited to viscosity ratio of 1.000000e+05 in 105 cells 
   205  1.2062e-02  7.2642e-07  8.0540e-06  6.5418e-06  1.0806e-05  0:03:26 1795

 turbulent viscosity limited to viscosity ratio of 1.000000e+05 in 104 cells 
   206  1.5205e-02  7.2174e-07  8.0199e-06  6.5058e-06  1.1580e-05  0:02:45 1794

 turbulent viscosity limited to viscosity ratio of 1.000000e+05 in 102 cells 
   207  1.7482e-02  7.1834e-07  7.9843e-06  6.4681e-06  1.2995e-05  0:08:10 1793

 turbulent viscosity limited to viscosity ratio of 1.000000e+05 in 103 cells 
   208  1.4083e-02  7.1505e-07  7.9511e-06  6.4334e-06  1.0404e-05  0:06:32 1792

 turbulent viscosity limited to viscosity ratio of 1.000000e+05 in 104 cells 
   209  1.7565e-02  7.1146e-07  7.9156e-06  6.3979e-06  1.1524e-05  0:05:13 1791

 turbulent viscosity limited to viscosity ratio of 1.000000e+05 in 103 cells 

  iter  continuity  x-velocity  y-velocity           k       omega     time/iter
   210  2.0094e-02  7.0763e-07  7.8816e-06  6.3628e-06  1.2766e-05  0:04:11 1790

 turbulent viscosity limited to viscosity ratio of 1.000000e+05 in 104 cells 
   211  1.4996e-02  7.0404e-07  7.8488e-06  6.3283e-06  1.0650e-05  0:03:20 1789

 turbulent viscosity limited to viscosity ratio of 1.000000e+05 in 104 cells 
   212  1.8130e-02  7.0036e-07  7.8136e-06  6.2935e-06  1.1171e-05  0:02:40 1788

 turbulent viscosity limited to viscosity ratio of 1.000000e+05 in 102 cells 
   213  2.2348e-02  6.9659e-07  7.7805e-06  6.2609e-06  1.3103e-05  0:08:05 1787

 turbulent viscosity limited to viscosity ratio of 1.000000e+05 in 102 cells 
   214  1.7572e-02  6.9336e-07  7.7482e-06  6.2265e-06  1.0326e-05  0:06:28 1786

 turbulent viscosity limited to viscosity ratio of 1.000000e+05 in 102 cells 
   215  2.0369e-02  6.8949e-07  7.7132e-06  6.1926e-06  1.1528e-05  0:05:10 1785

 turbulent viscosity limited to viscosity ratio of 1.000000e+05 in 101 cells 
   216  2.4828e-02  6.8600e-07  7.6808e-06  6.1621e-06  1.2646e-05  0:04:08 1784

 turbulent viscosity limited to viscosity ratio of 1.000000e+05 in 102 cells 
   217  1.8535e-02  6.8277e-07  7.6491e-06  6.1280e-06  1.0796e-05  0:03:18 1783

 turbulent viscosity limited to viscosity ratio of 1.000000e+05 in 100 cells 
   218  2.0450e-02  6.7867e-07  7.6142e-06  6.0951e-06  1.0894e-05  0:02:39 1782

 turbulent viscosity limited to viscosity ratio of 1.000000e+05 in 100 cells 
   219  2.7063e-02  6.7518e-07  7.5825e-06  6.0661e-06  1.2516e-05  0:08:03 1781

 turbulent viscosity limited to viscosity ratio of 1.000000e+05 in 100 cells 
   220  1.9970e-02  6.7220e-07  7.5512e-06  6.0327e-06  1.0246e-05  0:06:26 1780

 turbulent viscosity limited to viscosity ratio of 1.000000e+05 in 100 cells 

  iter  continuity  x-velocity  y-velocity           k       omega     time/iter
   221  2.2696e-02  6.6806e-07  7.5167e-06  6.0008e-06  1.1069e-05  0:05:09 1779

 turbulent viscosity limited to viscosity ratio of 1.000000e+05 in 99 cells 
   222  3.1217e-02  6.6482e-07  7.4857e-06  5.9732e-06  1.2600e-05  0:04:07 1778

 turbulent viscosity limited to viscosity ratio of 1.000000e+05 in 98 cells 
   223  2.1394e-02  6.6208e-07  7.4547e-06  5.9407e-06  1.0495e-05  0:03:17 1777

 turbulent viscosity limited to viscosity ratio of 1.000000e+05 in 99 cells 
   224  2.4590e-02  6.5716e-07  7.4214e-06  5.9099e-06  1.0959e-05  0:02:38 1776

 turbulent viscosity limited to viscosity ratio of 1.000000e+05 in 98 cells 
   225  3.2822e-02  6.5441e-07  7.3906e-06  5.8834e-06  1.2396e-05  0:08:01 1775

 turbulent viscosity limited to viscosity ratio of 1.000000e+05 in 99 cells 
   226  2.2267e-02  6.5190e-07  7.3609e-06  5.8519e-06  1.0392e-05  0:06:25 1774

 turbulent viscosity limited to viscosity ratio of 1.000000e+05 in 99 cells 
   227  2.5692e-02  6.4737e-07  7.3261e-06  5.8223e-06  1.0793e-05  0:05:08 1773

 turbulent viscosity limited to viscosity ratio of 1.000000e+05 in 98 cells 
   228  3.5428e-02  6.4466e-07  7.2965e-06  5.7971e-06  1.2183e-05  0:04:06 1772

 turbulent viscosity limited to viscosity ratio of 1.000000e+05 in 98 cells 
   229  2.4233e-02  6.4188e-07  7.2669e-06  5.7666e-06  1.0279e-05  0:03:17 1771

 turbulent viscosity limited to viscosity ratio of 1.000000e+05 in 98 cells 
   230  2.7635e-02  6.3717e-07  7.2328e-06  5.7382e-06  1.0660e-05  0:02:37 1770

 turbulent viscosity limited to viscosity ratio of 1.000000e+05 in 94 cells 
   231  3.8425e-02  6.3467e-07  7.2040e-06  5.7143e-06  1.2011e-05  0:08:00 1769

 turbulent viscosity limited to viscosity ratio of 1.000000e+05 in 95 cells 

  iter  continuity  x-velocity  y-velocity           k       omega     time/iter
   232  2.5762e-02  6.3181e-07  7.1747e-06  5.6853e-06  1.0229e-05  0:06:23 1768

 turbulent viscosity limited to viscosity ratio of 1.000000e+05 in 93 cells 
   233  2.7960e-02  6.2680e-07  7.1407e-06  5.6587e-06  1.0620e-05  0:05:07 1767

 turbulent viscosity limited to viscosity ratio of 1.000000e+05 in 91 cells 
   234  4.0483e-02  6.2466e-07  7.1124e-06  5.6372e-06  1.2026e-05  0:04:05 1766

 turbulent viscosity limited to viscosity ratio of 1.000000e+05 in 92 cells 
   235  2.8273e-02  6.2169e-07  7.0837e-06  5.6115e-06  1.0644e-05  0:03:16 1765

 turbulent viscosity limited to viscosity ratio of 1.000000e+05 in 93 cells 
   236  3.4063e-02  6.1740e-07  7.0499e-06  5.5854e-06  1.6960e-05  0:02:37 1764

 turbulent viscosity limited to viscosity ratio of 1.000000e+05 in 93 cells 
   237  3.7827e-02  6.1454e-07  7.0218e-06  5.5564e-06  1.1852e-05  0:07:58 1763

 turbulent viscosity limited to viscosity ratio of 1.000000e+05 in 94 cells 
   238  3.3178e-02  6.1118e-07  6.9908e-06  5.5272e-06  1.0592e-05  0:06:22 1762

 turbulent viscosity limited to viscosity ratio of 1.000000e+05 in 92 cells 
   239  2.6923e-02  6.0551e-07  6.9589e-06  5.5002e-06  1.0917e-05  0:05:05 1761

 turbulent viscosity limited to viscosity ratio of 1.000000e+05 in 88 cells 
   240  3.9067e-02  6.0336e-07  6.9315e-06  5.4772e-06  1.2026e-05  0:04:04 1760

 turbulent viscosity limited to viscosity ratio of 1.000000e+05 in 87 cells 
   241  2.8020e-02  6.0069e-07  6.9041e-06  5.4524e-06  1.0505e-05  0:03:15 1759

 turbulent viscosity limited to viscosity ratio of 1.000000e+05 in 89 cells 
   242  3.3431e-02  5.9692e-07  6.8712e-06  5.4295e-06  1.5108e-05  0:08:28 1758

 turbulent viscosity limited to viscosity ratio of 1.000000e+05 in 88 cells 

  iter  continuity  x-velocity  y-velocity           k       omega     time/iter
   243  3.7275e-02  5.9470e-07  6.8435e-06  5.4058e-06  1.1324e-05  0:06:46 1757

 turbulent viscosity limited to viscosity ratio of 1.000000e+05 in 88 cells 
   244  3.3083e-02  5.9126e-07  6.8142e-06  5.3798e-06  9.9942e-06  0:05:25 1756

 turbulent viscosity limited to viscosity ratio of 1.000000e+05 in 87 cells 
   245  2.7566e-02  5.8598e-07  6.7840e-06  5.3547e-06  1.0108e-05  0:04:20 1755

 turbulent viscosity limited to viscosity ratio of 1.000000e+05 in 86 cells 
   246  3.8513e-02  5.8407e-07  6.7568e-06  5.3340e-06  1.1018e-05  0:03:27 1754

 turbulent viscosity limited to viscosity ratio of 1.000000e+05 in 85 cells 
   247  2.7821e-02  5.8093e-07  6.7295e-06  5.3092e-06  9.7931e-06  0:02:46 1753

 turbulent viscosity limited to viscosity ratio of 1.000000e+05 in 86 cells 
   248  2.7298e-02  5.7672e-07  6.6973e-06  5.2861e-06  1.1197e-05  0:08:03 1752

 turbulent viscosity limited to viscosity ratio of 1.000000e+05 in 85 cells 
   249  3.5343e-02  5.7462e-07  6.6703e-06  5.2664e-06  1.0953e-05  0:06:26 1751

 turbulent viscosity limited to viscosity ratio of 1.000000e+05 in 86 cells 
   250  3.2348e-02  5.7158e-07  6.6426e-06  5.2420e-06  9.7851e-06  0:05:09 1750

 turbulent viscosity limited to viscosity ratio of 1.000000e+05 in 85 cells 
   251  2.4133e-02  5.6664e-07  6.6131e-06  5.2189e-06  1.0037e-05  0:04:07 1749

 turbulent viscosity limited to viscosity ratio of 1.000000e+05 in 85 cells 
   252  3.3279e-02  5.6459e-07  6.5858e-06  5.1997e-06  1.0675e-05  0:03:17 1748

 turbulent viscosity limited to viscosity ratio of 1.000000e+05 in 85 cells 
   253  2.7259e-02  5.6128e-07  6.5587e-06  5.1763e-06  9.6622e-06  0:02:38 1747

 turbulent viscosity limited to viscosity ratio of 1.000000e+05 in 85 cells 

  iter  continuity  x-velocity  y-velocity           k       omega     time/iter
   254  2.3702e-02  5.5684e-07  6.5298e-06  5.1544e-06  1.0441e-05  0:07:55 1746

 turbulent viscosity limited to viscosity ratio of 1.000000e+05 in 85 cells 
   255  3.0132e-02  5.5494e-07  6.5025e-06  5.1359e-06  1.0689e-05  0:06:20 1745

 turbulent viscosity limited to viscosity ratio of 1.000000e+05 in 85 cells 
   256  2.8997e-02  5.5227e-07  6.4751e-06  5.1131e-06  9.6807e-06  0:05:04 1744

 turbulent viscosity limited to viscosity ratio of 1.000000e+05 in 85 cells 
   257  2.3552e-02  5.4817e-07  6.4469e-06  5.0916e-06  1.0153e-05  0:04:03 1743

 turbulent viscosity limited to viscosity ratio of 1.000000e+05 in 85 cells 
   258  2.8146e-02  5.4543e-07  6.4206e-06  5.0738e-06  1.0681e-05  0:03:14 1742

 turbulent viscosity limited to viscosity ratio of 1.000000e+05 in 85 cells 
   259  2.6383e-02  5.4279e-07  6.3936e-06  5.0521e-06  9.9553e-06  0:02:35 1741

 turbulent viscosity limited to viscosity ratio of 1.000000e+05 in 84 cells 
   260  2.3119e-02  5.3880e-07  6.3662e-06  5.0317e-06  1.1030e-05  0:07:52 1740

 turbulent viscosity limited to viscosity ratio of 1.000000e+05 in 82 cells 
   261  2.8732e-02  5.3638e-07  6.3398e-06  5.0163e-06  1.1923e-05  0:06:18 1739

 turbulent viscosity limited to viscosity ratio of 1.000000e+05 in 83 cells 
   262  2.9894e-02  5.3337e-07  6.3130e-06  4.9943e-06  1.0817e-05  0:05:02 1738

 turbulent viscosity limited to viscosity ratio of 1.000000e+05 in 82 cells 
   263  2.5008e-02  5.2970e-07  6.2859e-06  4.9741e-06  1.1121e-05  0:04:01 1737

 turbulent viscosity limited to viscosity ratio of 1.000000e+05 in 78 cells 
   264  2.8104e-02  5.2767e-07  6.2595e-06  4.9574e-06  1.1149e-05  0:03:13 1736

 turbulent viscosity limited to viscosity ratio of 1.000000e+05 in 75 cells 

  iter  continuity  x-velocity  y-velocity           k       omega     time/iter
   265  2.8826e-02  5.2458e-07  6.2334e-06  4.9360e-06  1.0703e-05  0:02:34 1735

 turbulent viscosity limited to viscosity ratio of 1.000000e+05 in 73 cells 
   266  2.4719e-02  5.2129e-07  6.2072e-06  4.9167e-06  1.1071e-05  0:07:50 1734

 turbulent viscosity limited to viscosity ratio of 1.000000e+05 in 69 cells 
   267  2.7849e-02  5.1901e-07  6.1816e-06  4.8993e-06  1.1330e-05  0:06:16 1733

 turbulent viscosity limited to viscosity ratio of 1.000000e+05 in 69 cells 
   268  2.9267e-02  5.1616e-07  6.1559e-06  4.8793e-06  1.0511e-05  0:05:01 1732

 turbulent viscosity limited to viscosity ratio of 1.000000e+05 in 67 cells 
   269  2.4417e-02  5.1309e-07  6.1304e-06  4.8607e-06  1.0994e-05  0:04:00 1731

 turbulent viscosity limited to viscosity ratio of 1.000000e+05 in 65 cells 
   270  3.1274e-02  5.1102e-07  6.1053e-06  4.8454e-06  1.1136e-05  0:03:12 1730

 turbulent viscosity limited to viscosity ratio of 1.000000e+05 in 63 cells 
   271  3.6333e-02  5.0839e-07  6.0803e-06  4.8253e-06  1.0818e-05  0:02:34 1729

 turbulent viscosity limited to viscosity ratio of 1.000000e+05 in 63 cells 
   272  4.2553e-02  5.0589e-07  6.0545e-06  4.8070e-06  1.2124e-05  0:07:48 1728

 turbulent viscosity limited to viscosity ratio of 1.000000e+05 in 63 cells 
   273  4.6162e-02  5.0327e-07  6.0300e-06  4.7904e-06  1.1617e-05  0:06:15 1727

 turbulent viscosity limited to viscosity ratio of 1.000000e+05 in 59 cells 
   274  4.7856e-02  5.0031e-07  6.0051e-06  4.7712e-06  1.1306e-05  0:04:59 1726

 turbulent viscosity limited to viscosity ratio of 1.000000e+05 in 61 cells 
   275  5.1550e-02  4.9731e-07  5.9798e-06  4.7535e-06  1.3255e-05  0:03:59 1725

 turbulent viscosity limited to viscosity ratio of 1.000000e+05 in 60 cells 

  iter  continuity  x-velocity  y-velocity           k       omega     time/iter
   276  4.7888e-02  4.9455e-07  5.9550e-06  4.7364e-06  1.1684e-05  0:03:11 1724

 turbulent viscosity limited to viscosity ratio of 1.000000e+05 in 58 cells 
   277  4.3412e-02  4.9194e-07  5.9300e-06  4.7195e-06  1.1425e-05  0:02:33 1723

 turbulent viscosity limited to viscosity ratio of 1.000000e+05 in 56 cells 
   278  3.9282e-02  4.8953e-07  5.9056e-06  4.7029e-06  1.2629e-05  0:02:02 1722

 turbulent viscosity limited to viscosity ratio of 1.000000e+05 in 54 cells 
   279  3.9482e-02  4.8702e-07  5.8812e-06  4.6875e-06  1.2249e-05  0:07:22 1721

 turbulent viscosity limited to viscosity ratio of 1.000000e+05 in 52 cells 
   280  4.5183e-02  4.8489e-07  5.8574e-06  4.6708e-06  1.1484e-05  0:05:53 1720

 turbulent viscosity limited to viscosity ratio of 1.000000e+05 in 50 cells 
   281  6.0871e-02  4.8318e-07  5.8348e-06  4.6547e-06  1.1167e-05  0:04:43 1719

 turbulent viscosity limited to viscosity ratio of 1.000000e+05 in 50 cells 
   282  9.2310e-02  4.8222e-07  5.8137e-06  4.6386e-06  1.1002e-05  0:03:46 1718

 turbulent viscosity limited to viscosity ratio of 1.000000e+05 in 49 cells 
   283  1.1895e-01  4.8103e-07  5.7923e-06  4.6232e-06  1.1248e-05  0:03:01 1717

 turbulent viscosity limited to viscosity ratio of 1.000000e+05 in 44 cells 
   284  1.1394e-01  4.7740e-07  5.7679e-06  4.6057e-06  1.2830e-05  0:02:24 1716

 turbulent viscosity limited to viscosity ratio of 1.000000e+05 in 42 cells 
   285  1.0207e-01  4.7463e-07  5.7436e-06  4.5883e-06  1.2630e-05  0:07:38 1715

 turbulent viscosity limited to viscosity ratio of 1.000000e+05 in 38 cells 
   286  9.1832e-02  4.7224e-07  5.7196e-06  4.5731e-06  1.1581e-05  0:06:07 1714

 turbulent viscosity limited to viscosity ratio of 1.000000e+05 in 36 cells 

  iter  continuity  x-velocity  y-velocity           k       omega     time/iter
   287  8.0055e-02  4.7063e-07  5.6961e-06  4.5584e-06  1.0992e-05  0:04:53 1713

 turbulent viscosity limited to viscosity ratio of 1.000000e+05 in 35 cells 
   288  7.0268e-02  4.6964e-07  5.6738e-06  4.5437e-06  1.0663e-05  0:03:54 1712

 turbulent viscosity limited to viscosity ratio of 1.000000e+05 in 36 cells 
   289  6.3085e-02  4.6860e-07  5.6525e-06  4.5315e-06  1.0426e-05  0:08:50 1711

 turbulent viscosity limited to viscosity ratio of 1.000000e+05 in 37 cells 
   290  6.3794e-02  4.6818e-07  5.6317e-06  4.5157e-06  1.0409e-05  0:07:03 1710

 turbulent viscosity limited to viscosity ratio of 1.000000e+05 in 35 cells 
   291  7.2509e-02  4.6838e-07  5.6120e-06  4.5031e-06  9.9606e-06  0:05:39 1709

 turbulent viscosity limited to viscosity ratio of 1.000000e+05 in 37 cells 
   292  8.1863e-02  4.6933e-07  5.5930e-06  4.4828e-06  9.8320e-06  0:04:31 1708

 turbulent viscosity limited to viscosity ratio of 1.000000e+05 in 38 cells 
   293  9.6071e-02  4.7088e-07  5.5752e-06  4.4671e-06  9.5817e-06  0:03:36 1707

 turbulent viscosity limited to viscosity ratio of 1.000000e+05 in 40 cells 
   294  1.1439e-01  4.7449e-07  5.5587e-06  4.4523e-06  9.5211e-06  0:02:53 1706

 turbulent viscosity limited to viscosity ratio of 1.000000e+05 in 39 cells 
   295  1.3726e-01  4.7970e-07  5.5449e-06  4.4398e-06  9.1303e-06  0:02:18 1705

 turbulent viscosity limited to viscosity ratio of 1.000000e+05 in 41 cells 
   296  1.7176e-01  4.8499e-07  5.5307e-06  4.4271e-06  9.0546e-06  0:07:31 1704

 turbulent viscosity limited to viscosity ratio of 1.000000e+05 in 42 cells 
   297  2.1492e-01  4.9265e-07  5.5178e-06  4.4140e-06  8.7334e-06  0:06:01 1703

 turbulent viscosity limited to viscosity ratio of 1.000000e+05 in 45 cells 

  iter  continuity  x-velocity  y-velocity           k       omega     time/iter
   298  2.6719e-01  5.0396e-07  5.5086e-06  4.4005e-06  9.6733e-06  0:04:49 1702

 turbulent viscosity limited to viscosity ratio of 1.000000e+05 in 46 cells 
   299  3.3998e-01  5.2415e-07  5.5100e-06  4.3880e-06  1.0901e-05  0:03:51 1701

 turbulent viscosity limited to viscosity ratio of 1.000000e+05 in 49 cells 
   300  4.5247e-01  5.3980e-07  5.5089e-06  4.3703e-06  1.0266e-05  0:03:04 1700

 turbulent viscosity limited to viscosity ratio of 1.000000e+05 in 48 cells 
   301  5.7459e-01  5.6962e-07  5.5295e-06  4.3559e-06  9.4306e-06  0:02:27 1699

 turbulent viscosity limited to viscosity ratio of 1.000000e+05 in 49 cells 
   302  7.3169e-01  5.9770e-07  5.5450e-06  4.3437e-06  8.8846e-06  0:07:38 1698

 turbulent viscosity limited to viscosity ratio of 1.000000e+05 in 52 cells 
   303  9.3850e-01  6.2409e-07  5.5673e-06  4.3295e-06  1.2505e-05  0:06:06 1697

 turbulent viscosity limited to viscosity ratio of 1.000000e+05 in 51 cells 
   304  1.2059e+00  6.8251e-07  5.5932e-06  4.3131e-06  8.7720e-06  0:04:52 1696

 turbulent viscosity limited to viscosity ratio of 1.000000e+05 in 51 cells 
   305  2.0277e+00  6.9450e-07  5.6633e-06  4.2989e-06  8.6969e-06  0:03:54 1695

 turbulent viscosity limited to viscosity ratio of 1.000000e+05 in 52 cells 
   306  2.6676e+00  6.8970e-07  5.7162e-06  4.2850e-06  9.3156e-06  0:03:07 1694

 turbulent viscosity limited to viscosity ratio of 1.000000e+05 in 54 cells 
   307  3.1985e+00  6.5747e-07  5.7435e-06  4.2717e-06  1.0988e-05  0:02:29 1693

 turbulent viscosity limited to viscosity ratio of 1.000000e+05 in 54 cells 
   308  3.2201e+00  6.6332e-07  5.6690e-06  4.2585e-06  9.3257e-06  0:07:38 1692

 turbulent viscosity limited to viscosity ratio of 1.000000e+05 in 53 cells 

  iter  continuity  x-velocity  y-velocity           k       omega     time/iter
   309  3.1516e+00  6.3093e-07  5.6048e-06  4.2450e-06  8.4763e-06  0:06:06 1691

 turbulent viscosity limited to viscosity ratio of 1.000000e+05 in 50 cells 
   310  5.8416e+00  6.6736e-07  5.6410e-06  4.2317e-06  8.5872e-06  0:04:53 1690

 turbulent viscosity limited to viscosity ratio of 1.000000e+05 in 48 cells 
   311  7.3960e+00  7.2942e-07  5.6817e-06  4.2187e-06  1.0295e-05  0:03:54 1689

 turbulent viscosity limited to viscosity ratio of 1.000000e+05 in 48 cells 
   312  7.2965e+00  7.2549e-07  5.8071e-06  4.2051e-06  9.1706e-06  0:03:07 1688

 turbulent viscosity limited to viscosity ratio of 1.000000e+05 in 49 cells 
   313  5.6804e+00  7.4631e-07  5.7329e-06  4.1938e-06  7.8204e-06  0:02:30 1687

 turbulent viscosity limited to viscosity ratio of 1.000000e+05 in 50 cells 
   314  3.9104e+00  6.5296e-07  5.6884e-06  4.1822e-06  7.2515e-06  0:07:37 1686

 turbulent viscosity limited to viscosity ratio of 1.000000e+05 in 50 cells 
   315  3.9945e+00  6.8144e-07  5.5171e-06  4.1758e-06  7.3868e-06  0:06:05 1685

 turbulent viscosity limited to viscosity ratio of 1.000000e+05 in 50 cells 
   316  3.3537e+00  6.1842e-07  5.3312e-06  4.1604e-06  8.5664e-06  0:04:52 1684

 turbulent viscosity limited to viscosity ratio of 1.000000e+05 in 54 cells 
   317  2.8929e+00  5.5810e-07  5.2079e-06  4.1406e-06  8.3579e-06  0:03:53 1683

 turbulent viscosity limited to viscosity ratio of 1.000000e+05 in 58 cells 
   318  2.6791e+00  5.0669e-07  5.1602e-06  4.1280e-06  9.8768e-06  0:03:07 1682

 turbulent viscosity limited to viscosity ratio of 1.000000e+05 in 55 cells 
   319  2.3312e+00  4.7574e-07  5.1138e-06  4.1096e-06  1.1406e-05  0:02:29 1681

 turbulent viscosity limited to viscosity ratio of 1.000000e+05 in 58 cells 

  iter  continuity  x-velocity  y-velocity           k       omega     time/iter
   320  2.1708e+00  4.5392e-07  5.0682e-06  4.0928e-06  7.9401e-06  0:07:35 1680

 turbulent viscosity limited to viscosity ratio of 1.000000e+05 in 59 cells 
   321  1.7530e+00  4.4604e-07  5.0247e-06  4.0746e-06  7.6066e-06  0:06:04 1679

 turbulent viscosity limited to viscosity ratio of 1.000000e+05 in 63 cells 
   322  1.4467e+00  4.4047e-07  4.9963e-06  4.0642e-06  7.9879e-06  0:04:51 1678

 turbulent viscosity limited to viscosity ratio of 1.000000e+05 in 62 cells 
   323  1.2955e+00  4.3797e-07  4.9692e-06  4.0535e-06  7.7194e-06  0:03:53 1677

 turbulent viscosity limited to viscosity ratio of 1.000000e+05 in 68 cells 
   324  1.0947e+00  4.3173e-07  4.9376e-06  4.0438e-06  8.2982e-06  0:03:06 1676

 turbulent viscosity limited to viscosity ratio of 1.000000e+05 in 67 cells 
   325  9.2770e-01  4.2177e-07  4.9119e-06  4.0242e-06  7.5168e-06  0:02:29 1675

 turbulent viscosity limited to viscosity ratio of 1.000000e+05 in 70 cells 
   326  8.0872e-01  4.0987e-07  4.8839e-06  4.0091e-06  8.1365e-06  0:07:34 1674

 turbulent viscosity limited to viscosity ratio of 1.000000e+05 in 69 cells 
   327  6.6639e-01  4.0266e-07  4.8587e-06  3.9974e-06  6.9243e-06  0:06:03 1673

 turbulent viscosity limited to viscosity ratio of 1.000000e+05 in 70 cells 
   328  5.8767e-01  3.9822e-07  4.8338e-06  3.9850e-06  7.1793e-06  0:04:50 1672

 turbulent viscosity limited to viscosity ratio of 1.000000e+05 in 70 cells 
   329  4.9262e-01  3.9550e-07  4.8114e-06  3.9749e-06  6.4609e-06  0:03:52 1671

 turbulent viscosity limited to viscosity ratio of 1.000000e+05 in 70 cells 
   330  3.8876e-01  3.8968e-07  4.7914e-06  3.9646e-06  6.5741e-06  0:03:05 1670

 turbulent viscosity limited to viscosity ratio of 1.000000e+05 in 71 cells 

  iter  continuity  x-velocity  y-velocity           k       omega     time/iter
   331  3.2850e-01  3.8417e-07  4.7705e-06  3.9545e-06  6.3207e-06  0:02:28 1669

 turbulent viscosity limited to viscosity ratio of 1.000000e+05 in 71 cells 
   332  2.7658e-01  3.8028e-07  4.7494e-06  3.9454e-06  6.5057e-06  0:07:32 1668

 turbulent viscosity limited to viscosity ratio of 1.000000e+05 in 69 cells 
   333  2.3310e-01  3.7734e-07  4.7291e-06  3.9350e-06  6.3475e-06  0:06:01 1667

 turbulent viscosity limited to viscosity ratio of 1.000000e+05 in 69 cells 
   334  1.9662e-01  3.7395e-07  4.7082e-06  3.9237e-06  6.4374e-06  0:04:49 1666

 turbulent viscosity limited to viscosity ratio of 1.000000e+05 in 65 cells 
   335  1.6661e-01  3.7099e-07  4.6878e-06  3.9115e-06  6.0831e-06  0:03:51 1665

 turbulent viscosity limited to viscosity ratio of 1.000000e+05 in 65 cells 
   336  1.4769e-01  3.6776e-07  4.6677e-06  3.8996e-06  6.4206e-06  0:03:05 1664

 turbulent viscosity limited to viscosity ratio of 1.000000e+05 in 65 cells 
   337  1.2356e-01  3.6525e-07  4.6471e-06  3.8880e-06  6.0883e-06  0:08:00 1663

 turbulent viscosity limited to viscosity ratio of 1.000000e+05 in 65 cells 
   338  1.0766e-01  3.6228e-07  4.6274e-06  3.8782e-06  6.8887e-06  0:06:24 1662

 turbulent viscosity limited to viscosity ratio of 1.000000e+05 in 66 cells 
   339  9.3058e-02  3.6039e-07  4.6080e-06  3.8694e-06  4.9129e-06  0:05:07 1661

 turbulent viscosity limited to viscosity ratio of 1.000000e+05 in 64 cells 
   340  7.9553e-02  3.5773e-07  4.5891e-06  3.8585e-06  5.2390e-06  0:04:05 1660

 turbulent viscosity limited to viscosity ratio of 1.000000e+05 in 63 cells 
   341  6.9956e-02  3.5569e-07  4.5701e-06  3.8529e-06  6.6124e-06  0:03:16 1659

 turbulent viscosity limited to viscosity ratio of 1.000000e+05 in 64 cells 

  iter  continuity  x-velocity  y-velocity           k       omega     time/iter
   342  6.5111e-02  3.5345e-07  4.5513e-06  3.8411e-06  5.0732e-06  0:02:37 1658

 turbulent viscosity limited to viscosity ratio of 1.000000e+05 in 63 cells 
   343  5.6226e-02  3.5104e-07  4.5322e-06  3.8280e-06  5.9077e-06  0:07:37 1657

 turbulent viscosity limited to viscosity ratio of 1.000000e+05 in 62 cells 
   344  5.0517e-02  3.4877e-07  4.5139e-06  3.8197e-06  5.7417e-06  0:06:05 1656

 turbulent viscosity limited to viscosity ratio of 1.000000e+05 in 61 cells 
   345  4.6869e-02  3.4682e-07  4.4955e-06  3.8090e-06  5.8496e-06  0:04:52 1655

 turbulent viscosity limited to viscosity ratio of 1.000000e+05 in 59 cells 
   346  4.1803e-02  3.4486e-07  4.4774e-06  3.7986e-06  5.4534e-06  0:03:53 1654

 turbulent viscosity limited to viscosity ratio of 1.000000e+05 in 59 cells 
   347  3.7576e-02  3.4311e-07  4.4593e-06  3.7889e-06  5.2984e-06  0:03:07 1653

 turbulent viscosity limited to viscosity ratio of 1.000000e+05 in 58 cells 
   348  3.3415e-02  3.4138e-07  4.4417e-06  3.7791e-06  5.0034e-06  0:02:29 1652

 turbulent viscosity limited to viscosity ratio of 1.000000e+05 in 57 cells 
   349  3.0313e-02  3.3969e-07  4.4240e-06  3.7693e-06  4.9465e-06  0:07:30 1651

 turbulent viscosity limited to viscosity ratio of 1.000000e+05 in 57 cells 
   350  2.7991e-02  3.3771e-07  4.4064e-06  3.7601e-06  4.8280e-06  0:05:59 1650

 turbulent viscosity limited to viscosity ratio of 1.000000e+05 in 55 cells 
   351  2.5445e-02  3.3594e-07  4.3887e-06  3.7508e-06  4.8669e-06  0:04:47 1649

 turbulent viscosity limited to viscosity ratio of 1.000000e+05 in 55 cells 
   352  2.3922e-02  3.3427e-07  4.3712e-06  3.7410e-06  4.6911e-06  0:03:50 1648

 turbulent viscosity limited to viscosity ratio of 1.000000e+05 in 55 cells 

  iter  continuity  x-velocity  y-velocity           k       omega     time/iter
   353  2.2699e-02  3.3271e-07  4.3536e-06  3.7319e-06  4.7269e-06  0:03:04 1647

 turbulent viscosity limited to viscosity ratio of 1.000000e+05 in 53 cells 
   354  2.1102e-02  3.3104e-07  4.3363e-06  3.7224e-06  4.6661e-06  0:02:27 1646

 turbulent viscosity limited to viscosity ratio of 1.000000e+05 in 49 cells 
   355  2.0153e-02  3.2944e-07  4.3191e-06  3.7137e-06  4.7197e-06  0:07:26 1645

 turbulent viscosity limited to viscosity ratio of 1.000000e+05 in 48 cells 
   356  1.9547e-02  3.2782e-07  4.3020e-06  3.7042e-06  4.6346e-06  0:05:57 1644

 turbulent viscosity limited to viscosity ratio of 1.000000e+05 in 46 cells 
   357  1.8935e-02  3.2615e-07  4.2850e-06  3.6960e-06  4.6162e-06  0:04:45 1643

 turbulent viscosity limited to viscosity ratio of 1.000000e+05 in 44 cells 
   358  1.8068e-02  3.2448e-07  4.2680e-06  3.6859e-06  4.5651e-06  0:03:48 1642

 turbulent viscosity limited to viscosity ratio of 1.000000e+05 in 43 cells 
   359  1.9850e-02  3.2292e-07  4.2512e-06  3.6778e-06  4.6028e-06  0:03:02 1641

 turbulent viscosity limited to viscosity ratio of 1.000000e+05 in 41 cells 
   360  2.1130e-02  3.2143e-07  4.2344e-06  3.6683e-06  4.5461e-06  0:02:26 1640

 turbulent viscosity limited to viscosity ratio of 1.000000e+05 in 38 cells 
   361  2.0282e-02  3.1992e-07  4.2176e-06  3.6597e-06  4.6528e-06  0:07:24 1639

 turbulent viscosity limited to viscosity ratio of 1.000000e+05 in 39 cells 
   362  1.9161e-02  3.1833e-07  4.2011e-06  3.6505e-06  4.6263e-06  0:05:55 1638

 turbulent viscosity limited to viscosity ratio of 1.000000e+05 in 36 cells 
   363  1.7760e-02  3.1674e-07  4.1845e-06  3.6418e-06  4.6469e-06  0:04:44 1637

 turbulent viscosity limited to viscosity ratio of 1.000000e+05 in 36 cells 

  iter  continuity  x-velocity  y-velocity           k       omega     time/iter
   364  1.7509e-02  3.1513e-07  4.1681e-06  3.6329e-06  4.6380e-06  0:03:47 1636

 turbulent viscosity limited to viscosity ratio of 1.000000e+05 in 33 cells 
   365  1.8050e-02  3.1367e-07  4.1516e-06  3.6245e-06  4.5830e-06  0:03:02 1635

 turbulent viscosity limited to viscosity ratio of 1.000000e+05 in 33 cells 
   366  1.8117e-02  3.1208e-07  4.1354e-06  3.6155e-06  4.5044e-06  0:02:25 1634

 turbulent viscosity limited to viscosity ratio of 1.000000e+05 in 33 cells 
   367  1.9858e-02  3.1087e-07  4.1191e-06  3.6072e-06  4.5621e-06  0:01:56 1633

 turbulent viscosity limited to viscosity ratio of 1.000000e+05 in 33 cells 
   368  2.0934e-02  3.0934e-07  4.1030e-06  3.5984e-06  4.5197e-06  0:06:59 1632

 turbulent viscosity limited to viscosity ratio of 1.000000e+05 in 33 cells 
   369  1.9493e-02  3.0778e-07  4.0868e-06  3.5902e-06  4.5220e-06  0:05:35 1631

 turbulent viscosity limited to viscosity ratio of 1.000000e+05 in 33 cells 
   370  1.7543e-02  3.0615e-07  4.0707e-06  3.5816e-06  4.4470e-06  0:04:28 1630

 turbulent viscosity limited to viscosity ratio of 1.000000e+05 in 32 cells 
   371  1.7233e-02  3.0475e-07  4.0547e-06  3.5735e-06  5.0011e-06  0:03:34 1629

 turbulent viscosity limited to viscosity ratio of 1.000000e+05 in 32 cells 
   372  1.8720e-02  3.0333e-07  4.0388e-06  3.5655e-06  5.3337e-06  0:02:51 1628

 turbulent viscosity limited to viscosity ratio of 1.000000e+05 in 31 cells 
   373  1.8073e-02  3.0182e-07  4.0231e-06  3.5564e-06  6.4871e-06  0:02:17 1627

 turbulent viscosity limited to viscosity ratio of 1.000000e+05 in 30 cells 
   374  1.6834e-02  3.0031e-07  4.0074e-06  3.5485e-06  7.2353e-06  0:07:15 1626

 turbulent viscosity limited to viscosity ratio of 1.000000e+05 in 29 cells 

  iter  continuity  x-velocity  y-velocity           k       omega     time/iter
   375  1.6521e-02  2.9887e-07  3.9916e-06  3.5403e-06  5.9367e-06  0:05:48 1625

 turbulent viscosity limited to viscosity ratio of 1.000000e+05 in 28 cells 
   376  1.5812e-02  2.9737e-07  3.9761e-06  3.5323e-06  5.1600e-06  0:04:38 1624

 turbulent viscosity limited to viscosity ratio of 1.000000e+05 in 31 cells 
   377  1.5593e-02  2.9595e-07  3.9604e-06  3.5239e-06  4.7901e-06  0:03:42 1623

 turbulent viscosity limited to viscosity ratio of 1.000000e+05 in 30 cells 
   378  1.4516e-02  2.9454e-07  3.9449e-06  3.5164e-06  4.5432e-06  0:02:58 1622

 turbulent viscosity limited to viscosity ratio of 1.000000e+05 in 30 cells 
   379  1.3643e-02  2.9317e-07  3.9295e-06  3.5078e-06  4.5475e-06  0:02:22 1621

 turbulent viscosity limited to viscosity ratio of 1.000000e+05 in 29 cells 
   380  1.3165e-02  2.9175e-07  3.9142e-06  3.5007e-06  4.4910e-06  0:07:18 1620

 turbulent viscosity limited to viscosity ratio of 1.000000e+05 in 29 cells 
   381  1.3293e-02  2.9034e-07  3.8989e-06  3.4920e-06  4.4751e-06  0:05:50 1619

 turbulent viscosity limited to viscosity ratio of 1.000000e+05 in 27 cells 
   382  1.2048e-02  2.8887e-07  3.8836e-06  3.4842e-06  4.4241e-06  0:04:40 1618

 turbulent viscosity limited to viscosity ratio of 1.000000e+05 in 26 cells 
   383  1.2101e-02  2.8753e-07  3.8685e-06  3.4763e-06  4.4732e-06  0:03:44 1617

 turbulent viscosity limited to viscosity ratio of 1.000000e+05 in 24 cells 
   384  1.2141e-02  2.8627e-07  3.8537e-06  3.4701e-06  3.9388e-06  0:08:22 1616

 turbulent viscosity limited to viscosity ratio of 1.000000e+05 in 24 cells 
   385  1.1995e-02  2.8503e-07  3.8387e-06  3.4613e-06  3.7524e-06  0:06:41 1615

 turbulent viscosity limited to viscosity ratio of 1.000000e+05 in 22 cells 

  iter  continuity  x-velocity  y-velocity           k       omega     time/iter
   386  1.1890e-02  2.8355e-07  3.8239e-06  3.4539e-06  3.7176e-06  0:05:21 1614

 turbulent viscosity limited to viscosity ratio of 1.000000e+05 in 22 cells 
   387  1.1930e-02  2.8231e-07  3.8091e-06  3.4460e-06  3.5313e-06  0:04:17 1613

 turbulent viscosity limited to viscosity ratio of 1.000000e+05 in 18 cells 
   388  1.1163e-02  2.8086e-07  3.7943e-06  3.4373e-06  3.4752e-06  0:03:25 1612

 turbulent viscosity limited to viscosity ratio of 1.000000e+05 in 18 cells 
   389  9.9646e-03  2.7947e-07  3.7795e-06  3.4297e-06  3.4072e-06  0:02:44 1611

 turbulent viscosity limited to viscosity ratio of 1.000000e+05 in 19 cells 
   390  9.1739e-03  2.7813e-07  3.7649e-06  3.4221e-06  3.4157e-06  0:07:33 1610

 turbulent viscosity limited to viscosity ratio of 1.000000e+05 in 18 cells 
   391  8.7803e-03  2.7680e-07  3.7503e-06  3.4143e-06  3.2999e-06  0:06:02 1609

 turbulent viscosity limited to viscosity ratio of 1.000000e+05 in 18 cells 
   392  8.7231e-03  2.7550e-07  3.7358e-06  3.4068e-06  3.4494e-06  0:04:50 1608

 turbulent viscosity limited to viscosity ratio of 1.000000e+05 in 18 cells 
   393  8.3495e-03  2.7421e-07  3.7214e-06  3.3993e-06  3.2464e-06  0:03:52 1607

 turbulent viscosity limited to viscosity ratio of 1.000000e+05 in 16 cells 
   394  8.0105e-03  2.7293e-07  3.7070e-06  3.3919e-06  3.0466e-06  0:03:05 1606

 turbulent viscosity limited to viscosity ratio of 1.000000e+05 in 18 cells 
   395  7.5340e-03  2.7163e-07  3.6928e-06  3.3845e-06  3.3200e-06  0:02:28 1605

 turbulent viscosity limited to viscosity ratio of 1.000000e+05 in 17 cells 
   396  7.6172e-03  2.7036e-07  3.6786e-06  3.3772e-06  3.2843e-06  0:07:19 1604

 turbulent viscosity limited to viscosity ratio of 1.000000e+05 in 17 cells 

  iter  continuity  x-velocity  y-velocity           k       omega     time/iter
   397  1.2339e-02  2.6936e-07  3.6648e-06  3.3701e-06  3.6593e-06  0:05:51 1603

 turbulent viscosity limited to viscosity ratio of 1.000000e+05 in 18 cells 
   398  1.1248e-02  2.6798e-07  3.6510e-06  3.3627e-06  4.2790e-06  0:04:41 1602

 turbulent viscosity limited to viscosity ratio of 1.000000e+05 in 19 cells 
   399  1.0942e-02  2.6678e-07  3.6370e-06  3.3554e-06  4.8008e-06  0:03:44 1601

 turbulent viscosity limited to viscosity ratio of 1.000000e+05 in 19 cells 
   400  9.6275e-03  2.6557e-07  3.6228e-06  3.3482e-06  4.2278e-06  0:02:59 1600

 turbulent viscosity limited to viscosity ratio of 1.000000e+05 in 17 cells 
   401  8.7259e-03  2.6422e-07  3.6088e-06  3.3412e-06  3.7900e-06  0:02:23 1599

 turbulent viscosity limited to viscosity ratio of 1.000000e+05 in 17 cells 
   402  7.9670e-03  2.6288e-07  3.5948e-06  3.3341e-06  3.4735e-06  0:01:55 1598

 turbulent viscosity limited to viscosity ratio of 1.000000e+05 in 17 cells 
   403  7.4196e-03  2.6162e-07  3.5809e-06  3.3271e-06  3.3071e-06  0:06:51 1597

 turbulent viscosity limited to viscosity ratio of 1.000000e+05 in 16 cells 
   404  6.7663e-03  2.6039e-07  3.5671e-06  3.3204e-06  3.2610e-06  0:05:29 1596

 turbulent viscosity limited to viscosity ratio of 1.000000e+05 in 15 cells 
   405  6.5764e-03  2.5918e-07  3.5534e-06  3.3135e-06  3.2452e-06  0:04:23 1595

 turbulent viscosity limited to viscosity ratio of 1.000000e+05 in 16 cells 
   406  6.1353e-03  2.5799e-07  3.5399e-06  3.3066e-06  3.1086e-06  0:03:30 1594

 turbulent viscosity limited to viscosity ratio of 1.000000e+05 in 16 cells 
   407  5.9180e-03  2.5678e-07  3.5264e-06  3.2996e-06  3.1135e-06  0:02:48 1593

 turbulent viscosity limited to viscosity ratio of 1.000000e+05 in 15 cells 

  iter  continuity  x-velocity  y-velocity           k       omega     time/iter
   408  5.7446e-03  2.5561e-07  3.5129e-06  3.2930e-06  3.0627e-06  0:02:14 1592

 turbulent viscosity limited to viscosity ratio of 1.000000e+05 in 16 cells 
   409  5.6340e-03  2.5447e-07  3.4996e-06  3.2864e-06  3.0148e-06  0:07:06 1591

 turbulent viscosity limited to viscosity ratio of 1.000000e+05 in 14 cells 
   410  5.7996e-03  2.5335e-07  3.4863e-06  3.2800e-06  2.9927e-06  0:05:40 1590

 turbulent viscosity limited to viscosity ratio of 1.000000e+05 in 13 cells 
   411  5.6594e-03  2.5219e-07  3.4731e-06  3.2730e-06  3.0185e-06  0:04:32 1589

 turbulent viscosity limited to viscosity ratio of 1.000000e+05 in 11 cells 
   412  5.7807e-03  2.5107e-07  3.4599e-06  3.2668e-06  2.9596e-06  0:03:37 1588

 turbulent viscosity limited to viscosity ratio of 1.000000e+05 in 12 cells 
   413  5.6507e-03  2.4992e-07  3.4468e-06  3.2602e-06  3.0404e-06  0:02:54 1587

 turbulent viscosity limited to viscosity ratio of 1.000000e+05 in 10 cells 
   414  5.3011e-03  2.4878e-07  3.4337e-06  3.2540e-06  2.9156e-06  0:02:19 1586

 turbulent viscosity limited to viscosity ratio of 1.000000e+05 in 10 cells 
   415  5.5671e-03  2.4767e-07  3.4208e-06  3.2471e-06  3.0033e-06  0:07:08 1585

 turbulent viscosity limited to viscosity ratio of 1.000000e+05 in 10 cells 
   416  5.3359e-03  2.4657e-07  3.4079e-06  3.2412e-06  2.8854e-06  0:05:42 1584

 turbulent viscosity limited to viscosity ratio of 1.000000e+05 in 10 cells 
   417  6.0167e-03  2.4548e-07  3.3950e-06  3.2344e-06  2.9706e-06  0:04:34 1583

 turbulent viscosity limited to viscosity ratio of 1.000000e+05 in 11 cells 
   418  7.1888e-03  2.4443e-07  3.3822e-06  3.2279e-06  4.6575e-06  0:03:39 1582

 turbulent viscosity limited to viscosity ratio of 1.000000e+05 in 13 cells 

  iter  continuity  x-velocity  y-velocity           k       omega     time/iter
   419  6.8724e-03  2.4320e-07  3.3692e-06  3.2214e-06  5.7887e-06  0:02:55 1581

 turbulent viscosity limited to viscosity ratio of 1.000000e+05 in 11 cells 
   420  6.8501e-03  2.4240e-07  3.3567e-06  3.2149e-06  4.4017e-06  0:02:20 1580

 turbulent viscosity limited to viscosity ratio of 1.000000e+05 in 11 cells 
   421  6.7345e-03  2.4127e-07  3.3442e-06  3.2083e-06  3.6408e-06  0:07:08 1579

 turbulent viscosity limited to viscosity ratio of 1.000000e+05 in 12 cells 
   422  6.4566e-03  2.3999e-07  3.3316e-06  3.2019e-06  3.2274e-06  0:05:42 1578

 turbulent viscosity limited to viscosity ratio of 1.000000e+05 in 11 cells 
   423  5.9971e-03  2.3886e-07  3.3189e-06  3.1955e-06  3.0048e-06  0:04:33 1577

 turbulent viscosity limited to viscosity ratio of 1.000000e+05 in 11 cells 
   424  5.5606e-03  2.3782e-07  3.3063e-06  3.1893e-06  2.8922e-06  0:03:39 1576

 turbulent viscosity limited to viscosity ratio of 1.000000e+05 in 11 cells 
   425  5.3354e-03  2.3682e-07  3.2938e-06  3.1834e-06  2.8159e-06  0:02:55 1575

 turbulent viscosity limited to viscosity ratio of 1.000000e+05 in 9 cells 
   426  5.0686e-03  2.3581e-07  3.2814e-06  3.1774e-06  2.7540e-06  0:02:20 1574

 turbulent viscosity limited to viscosity ratio of 1.000000e+05 in 10 cells 
   427  4.9204e-03  2.3476e-07  3.2691e-06  3.1716e-06  2.6483e-06  0:07:06 1573

 turbulent viscosity limited to viscosity ratio of 1.000000e+05 in 11 cells 
   428  4.8074e-03  2.3371e-07  3.2568e-06  3.1654e-06  2.6287e-06  0:05:41 1572

 turbulent viscosity limited to viscosity ratio of 1.000000e+05 in 11 cells 
   429  4.7493e-03  2.3268e-07  3.2446e-06  3.1593e-06  2.4948e-06  0:04:32 1571

 turbulent viscosity limited to viscosity ratio of 1.000000e+05 in 12 cells 

  iter  continuity  x-velocity  y-velocity           k       omega     time/iter
   430  4.7176e-03  2.3166e-07  3.2324e-06  3.1533e-06  2.4326e-06  0:03:38 1570

 turbulent viscosity limited to viscosity ratio of 1.000000e+05 in 12 cells 
   431  4.6722e-03  2.3067e-07  3.2203e-06  3.1475e-06  2.3926e-06  0:02:54 1569

 turbulent viscosity limited to viscosity ratio of 1.000000e+05 in 12 cells 
   432  4.5103e-03  2.2969e-07  3.2083e-06  3.1416e-06  2.3837e-06  0:07:33 1568

 turbulent viscosity limited to viscosity ratio of 1.000000e+05 in 11 cells 
   433  4.3986e-03  2.2872e-07  3.1963e-06  3.1358e-06  2.3676e-06  0:06:02 1567

 turbulent viscosity limited to viscosity ratio of 1.000000e+05 in 11 cells 
   434  4.3640e-03  2.2776e-07  3.1843e-06  3.1301e-06  2.4030e-06  0:04:49 1566

 turbulent viscosity limited to viscosity ratio of 1.000000e+05 in 11 cells 
   435  4.3364e-03  2.2680e-07  3.1724e-06  3.1243e-06  2.3673e-06  0:03:51 1565

 turbulent viscosity limited to viscosity ratio of 1.000000e+05 in 11 cells 
   436  4.2649e-03  2.2586e-07  3.1606e-06  3.1186e-06  2.3068e-06  0:03:05 1564

 turbulent viscosity limited to viscosity ratio of 1.000000e+05 in 11 cells 
   437  4.1951e-03  2.2492e-07  3.1488e-06  3.1129e-06  2.2828e-06  0:02:28 1563

 turbulent viscosity limited to viscosity ratio of 1.000000e+05 in 12 cells 
[...]
  1818  3.8774e-04  4.3864e-08  2.2422e-07  1.4830e-06  2.4005e-07  0:00:25  182
  1819  3.8762e-04  4.3849e-08  2.2401e-07  1.4827e-06  2.4005e-07  0:00:20  181
  1820  3.8657e-04  4.3834e-08  2.2380e-07  1.4825e-06  2.3992e-07  0:00:16  180
  1821  3.8709e-04  4.3818e-08  2.2359e-07  1.4822e-06  2.3993e-07  0:00:49  179
  1822  3.8612e-04  4.3803e-08  2.2339e-07  1.4820e-06  2.3980e-07  0:00:39  178
  1823  3.8649e-04  4.3788e-08  2.2318e-07  1.4817e-06  2.3982e-07  0:00:31  177
  1824  3.8546e-04  4.3773e-08  2.2298e-07  1.4815e-06  2.3969e-07  0:00:24  176
  1825  3.8593e-04  4.3758e-08  2.2277e-07  1.4812e-06  2.3971e-07  0:00:19  175
  1826  3.8515e-04  4.3744e-08  2.2257e-07  1.4810e-06  2.3960e-07  0:00:15  174

  iter  continuity  x-velocity  y-velocity           k       omega     time/iter
  1827  3.8573e-04  4.3729e-08  2.2236e-07  1.4807e-06  2.3960e-07  0:00:47  173
  1828  3.8492e-04  4.3714e-08  2.2216e-07  1.4805e-06  2.3950e-07  0:00:37  172
  1829  3.8546e-04  4.3699e-08  2.2195e-07  1.4803e-06  2.3947e-07  0:00:30  171
  1830  3.8405e-04  4.3685e-08  2.2175e-07  1.4800e-06  2.3937e-07  0:00:24  170
  1831  3.8456e-04  4.3670e-08  2.2155e-07  1.4798e-06  2.3934e-07  0:00:19  169
  1832  3.8341e-04  4.3656e-08  2.2134e-07  1.4795e-06  2.3924e-07  0:00:15  168
  1833  3.8354e-04  4.3641e-08  2.2114e-07  1.4793e-06  2.3921e-07  0:00:45  167
  1834  3.8248e-04  4.3627e-08  2.2094e-07  1.4790e-06  2.3912e-07  0:00:36  166
  1835  3.8289e-04  4.3612e-08  2.2074e-07  1.4788e-06  2.3909e-07  0:00:29  165
  1836  3.8168e-04  4.3598e-08  2.2054e-07  1.4785e-06  2.3902e-07  0:00:23  164
  1837  3.8219e-04  4.3583e-08  2.2033e-07  1.4783e-06  2.3899e-07  0:00:51  163

  iter  continuity  x-velocity  y-velocity           k       omega     time/iter
  1838  3.8118e-04  4.3569e-08  2.2013e-07  1.4781e-06  2.3894e-07  0:00:40  162
  1839  3.8120e-04  4.3554e-08  2.1993e-07  1.4778e-06  2.3884e-07  0:00:32  161
  1840  3.7986e-04  4.3540e-08  2.1973e-07  1.4776e-06  2.3878e-07  0:00:25  160
  1841  3.8008e-04  4.3526e-08  2.1953e-07  1.4773e-06  2.3868e-07  0:00:20  159
  1842  3.7916e-04  4.3511e-08  2.1933e-07  1.4771e-06  2.3858e-07  0:00:48  158
  1843  3.7949e-04  4.3497e-08  2.1913e-07  1.4768e-06  2.3848e-07  0:00:38  157
  1844  3.7860e-04  4.3483e-08  2.1893e-07  1.4766e-06  2.3843e-07  0:00:30  156
  1845  3.7899e-04  4.3468e-08  2.1874e-07  1.4763e-06  2.3832e-07  0:00:55  155
  1846  3.7827e-04  4.3454e-08  2.1854e-07  1.4761e-06  2.3826e-07  0:00:44  154
  1847  3.7847e-04  4.3440e-08  2.1834e-07  1.4759e-06  2.3815e-07  0:00:35  153
  1848  3.7771e-04  4.3426e-08  2.1814e-07  1.4756e-06  2.3813e-07  0:00:58  152

  iter  continuity  x-velocity  y-velocity           k       omega     time/iter
  1849  3.7780e-04  4.3412e-08  2.1794e-07  1.4754e-06  2.3801e-07  0:00:46  151
  1850  3.7702e-04  4.3398e-08  2.1775e-07  1.4751e-06  2.3798e-07  0:00:37  150
  1851  3.7709e-04  4.3384e-08  2.1755e-07  1.4749e-06  2.3787e-07  0:00:59  149
  1852  3.7638e-04  4.3370e-08  2.1735e-07  1.4746e-06  2.3784e-07  0:00:47  148
  1853  3.7647e-04  4.3355e-08  2.1716e-07  1.4744e-06  2.3773e-07  0:00:37  147
  1854  3.7587e-04  4.3341e-08  2.1696e-07  1.4742e-06  2.3768e-07  0:00:59  146
  1855  3.7602e-04  4.3327e-08  2.1677e-07  1.4739e-06  2.3756e-07  0:00:47  145
  1856  3.7538e-04  4.3313e-08  2.1657e-07  1.4737e-06  2.3754e-07  0:00:37  144
  1857  3.7538e-04  4.3300e-08  2.1638e-07  1.4734e-06  2.3740e-07  0:00:29  143
  1858  3.7480e-04  4.3286e-08  2.1618e-07  1.4732e-06  2.3737e-07  0:00:52  142
  1859  3.7487e-04  4.3272e-08  2.1599e-07  1.4730e-06  2.3723e-07  0:00:41  141

  iter  continuity  x-velocity  y-velocity           k       omega     time/iter
  1860  3.7424e-04  4.3258e-08  2.1579e-07  1.4727e-06  2.3723e-07  0:00:33  140
  1861  3.7369e-04  4.3244e-08  2.1560e-07  1.4725e-06  2.3708e-07  0:00:54  139
  1862  3.7354e-04  4.3230e-08  2.1541e-07  1.4722e-06  2.3706e-07  0:00:43  138
  1863  3.7361e-04  4.3216e-08  2.1521e-07  1.4720e-06  2.3692e-07  0:00:34  137
  1864  3.7353e-04  4.3202e-08  2.1502e-07  1.4718e-06  2.3692e-07  0:00:54  136
  1865  3.7336e-04  4.3189e-08  2.1483e-07  1.4715e-06  2.3677e-07  0:00:43  135
  1866  3.7268e-04  4.3175e-08  2.1464e-07  1.4713e-06  2.3676e-07  0:00:34  134
  1867  3.7246e-04  4.3161e-08  2.1444e-07  1.4710e-06  2.3661e-07  0:00:54  133
  1868  3.7236e-04  4.3147e-08  2.1425e-07  1.4708e-06  2.3662e-07  0:00:43  132
  1869  3.7242e-04  4.3134e-08  2.1406e-07  1.4706e-06  2.3646e-07  0:00:34  131
  1870  3.7208e-04  4.3120e-08  2.1387e-07  1.4703e-06  2.3645e-07  0:00:27  130

  iter  continuity  x-velocity  y-velocity           k       omega     time/iter
  1871  3.7147e-04  4.3106e-08  2.1368e-07  1.4701e-06  2.3630e-07  0:00:21  129
  1872  3.7072e-04  4.3093e-08  2.1349e-07  1.4698e-06  2.3632e-07  0:00:17  128
  1873  3.7019e-04  4.3079e-08  2.1330e-07  1.4696e-06  2.3617e-07  0:00:39  127
  1874  3.6933e-04  4.3065e-08  2.1311e-07  1.4694e-06  2.3618e-07  0:00:31  126
  1875  3.6792e-04  4.3052e-08  2.1292e-07  1.4691e-06  2.3602e-07  0:00:24  125
  1876  3.6640e-04  4.3038e-08  2.1273e-07  1.4689e-06  2.3605e-07  0:00:19  124
  1877  3.6491e-04  4.3024e-08  2.1254e-07  1.4687e-06  2.3589e-07  0:00:15  123
  1878  3.6385e-04  4.3011e-08  2.1235e-07  1.4684e-06  2.3590e-07  0:00:12  122
  1879  3.6259e-04  4.2997e-08  2.1217e-07  1.4682e-06  2.3575e-07  0:00:34  121
  1880  3.6207e-04  4.2984e-08  2.1198e-07  1.4679e-06  2.3578e-07  0:00:27  120
  1881  3.6081e-04  4.2971e-08  2.1179e-07  1.4677e-06  2.3564e-07  0:00:21  119

  iter  continuity  x-velocity  y-velocity           k       omega     time/iter
  1882  3.5991e-04  4.2957e-08  2.1160e-07  1.4675e-06  2.3565e-07  0:00:17  118
  1883  3.5886e-04  4.2944e-08  2.1142e-07  1.4672e-06  2.3552e-07  0:00:37  117
  1884  3.5840e-04  4.2930e-08  2.1123e-07  1.4670e-06  2.3555e-07  0:00:29  116
  1885  3.5742e-04  4.2917e-08  2.1104e-07  1.4668e-06  2.3543e-07  0:00:23  115
  1886  3.5688e-04  4.2903e-08  2.1086e-07  1.4665e-06  2.3545e-07  0:00:18  114
  1887  3.5602e-04  4.2890e-08  2.1067e-07  1.4663e-06  2.3534e-07  0:00:15  113
  1888  3.5547e-04  4.2877e-08  2.1048e-07  1.4660e-06  2.3537e-07  0:00:12  112
  1889  3.5472e-04  4.2863e-08  2.1030e-07  1.4658e-06  2.3527e-07  0:00:31  111
  1890  3.5431e-04  4.2850e-08  2.1011e-07  1.4656e-06  2.3530e-07  0:00:25  110
  1891  3.5385e-04  4.2837e-08  2.0993e-07  1.4653e-06  2.3521e-07  0:00:20  109
  1892  3.5357e-04  4.2824e-08  2.0974e-07  1.4651e-06  2.3525e-07  0:00:16  108

  iter  continuity  x-velocity  y-velocity           k       omega     time/iter
  1893  3.5331e-04  4.2810e-08  2.0956e-07  1.4649e-06  2.3516e-07  0:00:12  107
  1894  3.5315e-04  4.2797e-08  2.0938e-07  1.4646e-06  2.3519e-07  0:00:10  106
  1895  3.5298e-04  4.2784e-08  2.0919e-07  1.4644e-06  2.3509e-07  0:00:29  105
  1896  3.5274e-04  4.2771e-08  2.0901e-07  1.4642e-06  2.3513e-07  0:00:23  104
  1897  3.5216e-04  4.2758e-08  2.0883e-07  1.4639e-06  2.3501e-07  0:00:18  103
  1898  3.5156e-04  4.2744e-08  2.0864e-07  1.4637e-06  2.3503e-07  0:00:14  102
  1899  3.5135e-04  4.2731e-08  2.0846e-07  1.4635e-06  2.3487e-07  0:00:11  101
  1900  3.5090e-04  4.2718e-08  2.0828e-07  1.4632e-06  2.3484e-07  0:00:09  100
  1901  3.5068e-04  4.2705e-08  2.0810e-07  1.4630e-06  2.3465e-07  0:00:27   99
  1902  3.5003e-04  4.2692e-08  2.0792e-07  1.4628e-06  2.3463e-07  0:00:21   98
  1903  3.4958e-04  4.2679e-08  2.0773e-07  1.4625e-06  2.3447e-07  0:00:17   97

  iter  continuity  x-velocity  y-velocity           k       omega     time/iter
  1904  3.4877e-04  4.2666e-08  2.0755e-07  1.4623e-06  2.3447e-07  0:00:13   96
  1905  3.4832e-04  4.2653e-08  2.0737e-07  1.4621e-06  2.3433e-07  0:00:11   95
  1906  3.4770e-04  4.2640e-08  2.0719e-07  1.4618e-06  2.3431e-07  0:00:08   94
  1907  3.4718e-04  4.2627e-08  2.0701e-07  1.4616e-06  2.3417e-07  0:00:25   93
  1908  3.4650e-04  4.2614e-08  2.0683e-07  1.4614e-06  2.3417e-07  0:00:20   92
  1909  3.4616e-04  4.2601e-08  2.0665e-07  1.4611e-06  2.3405e-07  0:00:16   91
  1910  3.4573e-04  4.2589e-08  2.0647e-07  1.4609e-06  2.3402e-07  0:00:12   90
  1911  3.4539e-04  4.2576e-08  2.0629e-07  1.4607e-06  2.3389e-07  0:00:10   89
  1912  3.4509e-04  4.2563e-08  2.0611e-07  1.4604e-06  2.3388e-07  0:00:08   88
  1913  3.4493e-04  4.2550e-08  2.0594e-07  1.4602e-06  2.3377e-07  0:00:24   87
  1914  3.4486e-04  4.2537e-08  2.0576e-07  1.4600e-06  2.3374e-07  0:00:19   86

  iter  continuity  x-velocity  y-velocity           k       omega     time/iter
  1915  3.4475e-04  4.2525e-08  2.0558e-07  1.4597e-06  2.3361e-07  0:00:15   85
  1916  3.4459e-04  4.2512e-08  2.0540e-07  1.4595e-06  2.3360e-07  0:00:12   84
  1917  3.4441e-04  4.2499e-08  2.0522e-07  1.4593e-06  2.3351e-07  0:00:09   83
  1918  3.4448e-04  4.2486e-08  2.0505e-07  1.4590e-06  2.3347e-07  0:00:24   82
  1919  3.4438e-04  4.2474e-08  2.0487e-07  1.4588e-06  2.3336e-07  0:00:19   81
  1920  3.4461e-04  4.2461e-08  2.0469e-07  1.4586e-06  2.3334e-07  0:00:15   80
  1921  3.4443e-04  4.2448e-08  2.0452e-07  1.4583e-06  2.3327e-07  0:00:12   79
  1922  3.4466e-04  4.2436e-08  2.0434e-07  1.4581e-06  2.3322e-07  0:00:09   78
  1923  3.4447e-04  4.2423e-08  2.0417e-07  1.4579e-06  2.3313e-07  0:00:07   77
  1924  3.4465e-04  4.2410e-08  2.0399e-07  1.4576e-06  2.3312e-07  0:00:21   76
  1925  3.4438e-04  4.2398e-08  2.0382e-07  1.4574e-06  2.3307e-07  0:00:17   75

  iter  continuity  x-velocity  y-velocity           k       omega     time/iter
  1926  3.4460e-04  4.2385e-08  2.0364e-07  1.4572e-06  2.3303e-07  0:00:13   74
  1927  3.4460e-04  4.2373e-08  2.0347e-07  1.4570e-06  2.3296e-07  0:00:10   73
  1928  3.4494e-04  4.2360e-08  2.0329e-07  1.4567e-06  2.3295e-07  0:00:23   72
  1929  3.4470e-04  4.2347e-08  2.0312e-07  1.4565e-06  2.3292e-07  0:00:18   71
  1930  3.4522e-04  4.2335e-08  2.0294e-07  1.4563e-06  2.3290e-07  0:00:14   70
  1931  3.4486e-04  4.2322e-08  2.0277e-07  1.4560e-06  2.3283e-07  0:00:11   69
  1932  3.4492e-04  4.2310e-08  2.0260e-07  1.4558e-06  2.3282e-07  0:00:09   68
  1933  3.4467e-04  4.2297e-08  2.0242e-07  1.4556e-06  2.3276e-07  0:00:07   67
  1934  3.4547e-04  4.2285e-08  2.0225e-07  1.4553e-06  2.3268e-07  0:00:19   66
  1935  3.4527e-04  4.2273e-08  2.0208e-07  1.4551e-06  2.3262e-07  0:00:15   65
  1936  3.4594e-04  4.2260e-08  2.0190e-07  1.4549e-06  2.3258e-07  0:00:12   64

  iter  continuity  x-velocity  y-velocity           k       omega     time/iter
  1937  3.4528e-04  4.2248e-08  2.0173e-07  1.4547e-06  2.3255e-07  0:00:09   63
  1938  3.4568e-04  4.2235e-08  2.0156e-07  1.4544e-06  2.3248e-07  0:00:07   62
  1939  3.4489e-04  4.2223e-08  2.0139e-07  1.4542e-06  2.3243e-07  0:00:06   61
  1940  3.4554e-04  4.2211e-08  2.0122e-07  1.4540e-06  2.3239e-07  0:00:16   60
  1941  3.4472e-04  4.2198e-08  2.0105e-07  1.4537e-06  2.3237e-07  0:00:13   59
  1942  3.4524e-04  4.2186e-08  2.0088e-07  1.4535e-06  2.3230e-07  0:00:10   58
  1943  3.4421e-04  4.2174e-08  2.0071e-07  1.4533e-06  2.3228e-07  0:00:08   57
  1944  3.4493e-04  4.2162e-08  2.0054e-07  1.4531e-06  2.3223e-07  0:00:06   56
  1945  3.4406e-04  4.2149e-08  2.0037e-07  1.4528e-06  2.3225e-07  0:00:05   55
  1946  3.4493e-04  4.2137e-08  2.0020e-07  1.4526e-06  2.3216e-07  0:00:15   54
  1947  3.4394e-04  4.2125e-08  2.0003e-07  1.4524e-06  2.3216e-07  0:00:12   53

  iter  continuity  x-velocity  y-velocity           k       omega     time/iter
  1948  3.4503e-04  4.2113e-08  1.9986e-07  1.4521e-06  2.3202e-07  0:00:09   52
  1949  3.4419e-04  4.2100e-08  1.9969e-07  1.4519e-06  2.3200e-07  0:00:07   51
  1950  3.4513e-04  4.2088e-08  1.9952e-07  1.4517e-06  2.3186e-07  0:00:06   50
  1951  3.4409e-04  4.2076e-08  1.9935e-07  1.4515e-06  2.3185e-07  0:00:04   49
  1952  3.4485e-04  4.2064e-08  1.9918e-07  1.4512e-06  2.3171e-07  0:00:13   48
  1953  3.4368e-04  4.2052e-08  1.9901e-07  1.4510e-06  2.3171e-07  0:00:10   47
  1954  3.4446e-04  4.2040e-08  1.9885e-07  1.4508e-06  2.3155e-07  0:00:08   46
  1955  3.4333e-04  4.2028e-08  1.9868e-07  1.4506e-06  2.3156e-07  0:00:06   45
  1956  3.4413e-04  4.2016e-08  1.9851e-07  1.4503e-06  2.3141e-07  0:00:05   44
  1957  3.4299e-04  4.2004e-08  1.9835e-07  1.4501e-06  2.3141e-07  0:00:04   43
  1958  3.4385e-04  4.1992e-08  1.9818e-07  1.4499e-06  2.3124e-07  0:00:11   42

  iter  continuity  x-velocity  y-velocity           k       omega     time/iter
  1959  3.4276e-04  4.1980e-08  1.9801e-07  1.4497e-06  2.3125e-07  0:00:09   41
  1960  3.4364e-04  4.1968e-08  1.9785e-07  1.4494e-06  2.3109e-07  0:00:07   40
  1961  3.4257e-04  4.1956e-08  1.9768e-07  1.4492e-06  2.3110e-07  0:00:05   39
  1962  3.4354e-04  4.1944e-08  1.9751e-07  1.4490e-06  2.3093e-07  0:00:04   38
  1963  3.4222e-04  4.1932e-08  1.9735e-07  1.4488e-06  2.3096e-07  0:00:11   37
  1964  3.4305e-04  4.1920e-08  1.9718e-07  1.4485e-06  2.3079e-07  0:00:08   36
  1965  3.4180e-04  4.1908e-08  1.9702e-07  1.4483e-06  2.3082e-07  0:00:06   35
  1966  3.4258e-04  4.1896e-08  1.9685e-07  1.4481e-06  2.3063e-07  0:00:05   34
  1967  3.4167e-04  4.1884e-08  1.9669e-07  1.4478e-06  2.3067e-07  0:00:04   33
  1968  3.4265e-04  4.1872e-08  1.9653e-07  1.4476e-06  2.3051e-07  0:00:03   32
  1969  3.4141e-04  4.1860e-08  1.9636e-07  1.4474e-06  2.3053e-07  0:00:09   31

  iter  continuity  x-velocity  y-velocity           k       omega     time/iter
  1970  3.4225e-04  4.1849e-08  1.9620e-07  1.4472e-06  2.3035e-07  0:00:07   30
  1971  3.4115e-04  4.1837e-08  1.9603e-07  1.4470e-06  2.3038e-07  0:00:05   29
  1972  3.4198e-04  4.1825e-08  1.9587e-07  1.4467e-06  2.3023e-07  0:00:04   28
  1973  3.4078e-04  4.1813e-08  1.9571e-07  1.4465e-06  2.3025e-07  0:00:08   27
  1974  3.4123e-04  4.1802e-08  1.9555e-07  1.4463e-06  2.3008e-07  0:00:07   26
  1975  3.3995e-04  4.1790e-08  1.9538e-07  1.4461e-06  2.3012e-07  0:00:05   25
  1976  3.4048e-04  4.1778e-08  1.9522e-07  1.4458e-06  2.2998e-07  0:00:04   24
  1977  3.3898e-04  4.1766e-08  1.9506e-07  1.4456e-06  2.2999e-07  0:00:03   23
  1978  3.3929e-04  4.1755e-08  1.9490e-07  1.4454e-06  2.2983e-07  0:00:02   22
  1979  3.3795e-04  4.1743e-08  1.9474e-07  1.4452e-06  2.2986e-07  0:00:06   21
  1980  3.3850e-04  4.1731e-08  1.9457e-07  1.4449e-06  2.2972e-07  0:00:05   20

  iter  continuity  x-velocity  y-velocity           k       omega     time/iter
  1981  3.3739e-04  4.1720e-08  1.9441e-07  1.4447e-06  2.2974e-07  0:00:03   19
  1982  3.3799e-04  4.1708e-08  1.9425e-07  1.4445e-06  2.2958e-07  0:00:03   18
  1983  3.3686e-04  4.1696e-08  1.9409e-07  1.4443e-06  2.2962e-07  0:00:02   17
  1984  3.3744e-04  4.1685e-08  1.9393e-07  1.4440e-06  2.2950e-07  0:00:01   16
  1985  3.3629e-04  4.1673e-08  1.9377e-07  1.4438e-06  2.2952e-07  0:00:04   15
  1986  3.3662e-04  4.1662e-08  1.9361e-07  1.4436e-06  2.2937e-07  0:00:03   14
  1987  3.3493e-04  4.1650e-08  1.9345e-07  1.4434e-06  2.2941e-07  0:00:02   13
  1988  3.3504e-04  4.1638e-08  1.9329e-07  1.4432e-06  2.2930e-07  0:00:02   12
  1989  3.3363e-04  4.1627e-08  1.9313e-07  1.4429e-06  2.2933e-07  0:00:01   11
  1990  3.3403e-04  4.1615e-08  1.9298e-07  1.4427e-06  2.2919e-07  0:00:01   10
  1991  3.3272e-04  4.1604e-08  1.9282e-07  1.4425e-06  2.2922e-07  0:00:02    9

  iter  continuity  x-velocity  y-velocity           k       omega     time/iter
  1992  3.3344e-04  4.1592e-08  1.9266e-07  1.4423e-06  2.2913e-07  0:00:02    8
  1993  3.3209e-04  4.1581e-08  1.9250e-07  1.4421e-06  2.2916e-07  0:00:01    7
  1994  3.3270e-04  4.1569e-08  1.9234e-07  1.4418e-06  2.2904e-07  0:00:01    6
  1995  3.3107e-04  4.1558e-08  1.9218e-07  1.4416e-06  2.2907e-07  0:00:01    5
  1996  3.3165e-04  4.1547e-08  1.9203e-07  1.4414e-06  2.2900e-07  0:00:00    4
  1997  3.3010e-04  4.1535e-08  1.9187e-07  1.4412e-06  2.2902e-07  0:00:01    3
  1998  3.3055e-04  4.1524e-08  1.9171e-07  1.4409e-06  2.2892e-07  0:00:00    2
  1999  3.2922e-04  4.1512e-08  1.9156e-07  1.4407e-06  2.2895e-07  0:00:00    1
  2000  3.3011e-04  4.1501e-08  1.9140e-07  1.4405e-06  2.2892e-07  0:00:00    0

> 
adjoint/                parallel/               server/
define/                 parametric-study/       solve/
display/                plot/                   surface/
exit                    preferences/            views/
file/                   print-license-usage
mesh/                   report/

> ;create rakes
surface/rake-surface cv_inlet -0.005 -0.065 -0.005 0.065 1000

> surface/rake-surface cv_outlet 1.005 -0.065 1.005 0.065 1000

> surface/rake-surface cv_top -0.005 0.065 1.005 0.065 1000

> surface/rake-surface cv_bottom -0.005 -0.065 1.005 -0.065 1000

> surface/point-surface free-stream -15 0

> 
adjoint/                parallel/               server/
define/                 parametric-study/       solve/
display/                plot/                   surface/
exit                    preferences/            views/
file/                   print-license-usage
mesh/                   report/

> ;export data
file/export/ascii NP_CVinlet_data cv_inlet () no pressure x-velocity y-velocity dx-velocity-dx dx-velocity-dy dy-velocity-dx dy-velocity-dy q no 
Writing "NP_CVinlet_data"...

Writing information to ascii file ...
Done.

ok


Overwrite confirmations (/file/set-batch-options ...)
are on -- will therefore ignore the following journal
Error: invalid command: ok


> file/export/ascii NP_CVoutlet_data cv_outlet () no pressure x-velocity y-velocity dx-velocity-dx dx-velocity-dy dy-velocity-dx dy-velocity-dy q no 
Writing "NP_CVoutlet_data"...

Writing information to ascii file ...
Done.

ok


Overwrite confirmations (/file/set-batch-options ...)
are on -- will therefore ignore the following journal
Error: invalid command: ok


> file/export/ascii NP_CVtop_data cv_top () no pressure x-velocity y-velocity dx-velocity-dx dx-velocity-dy dy-velocity-dx dy-velocity-dy q no 
Writing "NP_CVtop_data"...

Writing information to ascii file ...
Done.

ok


Overwrite confirmations (/file/set-batch-options ...)
are on -- will therefore ignore the following journal
Error: invalid command: ok


> file/export/ascii NP_CVbottom_data cv_bottom () no pressure x-velocity y-velocity dx-velocity-dx dx-velocity-dy dy-velocity-dx dy-velocity-dy q no 
Writing "NP_CVbottom_data"...

Writing information to ascii file ...
Done.

ok


Overwrite confirmations (/file/set-batch-options ...)
are on -- will therefore ignore the following journal
Error: invalid command: ok


> file/export/ascii air_properties free-stream () no density viscosity-lam q no 
Writing "air_properties"...

Writing information to ascii file ...
Done.

ok


Overwrite confirmations (/file/set-batch-options ...)
are on -- will therefore ignore the following journal
Error: invalid command: ok


> 
adjoint/                parallel/               server/
define/                 parametric-study/       solve/
display/                plot/                   surface/
exit                    preferences/            views/
file/                   print-license-usage
mesh/                   report/

> ;flag file to know when simulation is over
file/export/ascii flag_file free-stream () no pressure q no 
Writing "flag_file"...

Writing information to ascii file ...
Done.

ok


Overwrite confirmations (/file/set-batch-options ...)
are on -- will therefore ignore the following journal
Error: invalid command: ok


> /exit ok

Posting ANSYS Product Improvement Program performance data 
Done.
Auto-Transcript Stop Time:  19:04:32, 20 Jul 2025 GMT Summer Time 
Total Transcript Time: 13 Minute 27 Second.
