Auto-Transcript Start Time:  20:17:01, 01 Jul 2025 GMT Summer Time 
Current Directory: "C:\Users\V.Chepuri\OneDrive - Cranfield University\irp\pablo\AOA_3"

              Welcome to ANSYS Fluent 2024 R2

              Copyright 1987-2024 ANSYS, Inc. All Rights Reserved.
              Unauthorized use, distribution or duplication is prohibited.
              This product is subject to U.S. laws governing export and re-export.
              For full Legal Notice, see documentation.

Build Time: May 13 2024 11:28:30 EST  Build Id: 10192  
 
Connected License Server List:	1055@cclic-2.central.cranfield.ac.uk

*********************************************
Info: Your license enables 4-way parallel execution.
For faster simulations, please start the application with the appropriate parallel options.
*********************************************


     --------------------------------------------------------------
     This is an academic version of ANSYS FLUENT. Usage of this product
     license is limited to the terms and conditions specified in your ANSYS
     license form, additional terms section.
     --------------------------------------------------------------
Host spawning Node 0 on machine "37PCL051" (win64).

-------------------------------------------------------------------------------
ID    Hostname  Core  O.S.         PID    Vendor                          
-------------------------------------------------------------------------------
n0    37PCL051  1/28  Windows-x64  28668  Intel(R) Core(TM) i7-14700      
host  37PCL051        Windows-x64  24756  Intel(R) Core(TM) i7-14700      

MPI Option Selected: intel
-------------------------------------------------------------------------------

Cleanup script file is C:\\Users\\V.Chepuri\\OneDrive - Cranfield University\\irp\\pablo\\AOA_3\\cleanup-fluent-37PCL051-24756.bat

Posting ANSYS Product Improvement Program startup data
Done.

> (cx-gui-do cx-activate-item "Key Behavioral Changes*PanelButtons*PushButton1(OK)")
(cx-gui-do cx-activate-item "MenuBar*ReadSubMenu*Journal...")

Reading journal file C:/Users/V.Chepuri/OneDrive - Cranfield University/irp/pablo/AOA_3/template.jou...

> ;change to correct dir

file/read-case template_medium.cas.h5 Fast-loading "C:\PROGRA~1\ANSYSI~1\v242\fluent\fluent24.2.0\\addons\afd\lib\hdfio.bin"
Done.

37PCL051 has other FLUENT parallel processes running.                       Process affinity not being set.

Reading from 37PCL051:"C:\Users\V.Chepuri\OneDrive - Cranfield University\irp\pablo\AOA_3\template_medium.cas.h5" in NODE0 mode ...
  Reading mesh ...
      181070 cells,     4 cell zones ...
          36824 mixed cells,  zone id: 2
         108032 mixed cells,  zone id: 4
          27008 mixed cells,  zone id: 12
           9206 mixed cells,  zone id: 11
      309160 faces,    14 face zones ...
          65137 2D interior faces,  zone id: 3
         181145 2D interior faces,  zone id: 5
             42 2D velocity-inlet faces,  zone id: 6
             38 2D pressure-outlet faces,  zone id: 7
             40 2D velocity-inlet faces,  zone id: 8
            458 2D interior faces,  zone id: 9
            456 2D interior faces,  zone id: 10
            228 2D parent-face faces,  zone id: 19
            229 2D parent-face faces,  zone id: 18
             20 2D parent-face faces,  zone id: 17
             19 2D parent-face faces,  zone id: 16
             21 2D parent-face faces,  zone id: 15
          45157 2D parent-face faces,  zone id: 14
          16170 2D parent-face faces,  zone id: 13
      102461 nodes,     1 node zone  ...
  Done.


Building...
     mesh
     materials,
     interface,
     domains,
	mixture
     zones,
	outlet
	inlet
	interior-fluid
	interior-porous
	symmetry
	upper
	lower
	fluid
	porous
WARNING: "Smooth" contours can't be displayed when node-values is set to off. Changing the Coloring type to "Banded".
     parallel,
Done.
OK


Overwrite confirmations (/file/set-batch-options ...)
are on -- will therefore ignore the following journal
Error: invalid command: OK


> 
adjoint/                parallel/               server/
define/                 parametric-study/       solve/
display/                plot/                   surface/
exit                    preferences/            views/
file/                   print-license-usage
mesh/                   report/

> 
adjoint/                parallel/               server/
define/                 parametric-study/       solve/
display/                plot/                   surface/
exit                    preferences/            views/
file/                   print-license-usage
mesh/                   report/

> 
adjoint/                parallel/               server/
define/                 parametric-study/       solve/
display/                plot/                   surface/
exit                    preferences/            views/
file/                   print-license-usage
mesh/                   report/

> ;run simulation
solve/initialize/initialize-flow

> solve/iterate 2000

  iter  continuity  x-velocity  y-velocity     time/iter
     1  1.0000e+00  5.8592e-05  1.5048e-02  0:00:00 1999
     2  9.0359e-01  2.0143e-04  1.1021e-02  0:33:18 1998
     3  4.3544e-01  1.7550e-04  7.8732e-03  0:26:38 1997
     4  2.5701e-01  1.4627e-04  5.1850e-03  0:27:57 1996
     5  1.7292e-01  1.1907e-04  3.1316e-03  0:22:21 1995
     6  1.2934e-01  1.0358e-04  1.7793e-03  0:17:52 1994
     7  1.0299e-01  9.2326e-05  9.7044e-04  0:20:56 1993
     8  8.5514e-02  8.2545e-05  5.1484e-04  0:16:44 1992
     9  7.2614e-02  7.3226e-05  2.6929e-04  0:13:23 1991
    10  6.1779e-02  6.4845e-05  1.4008e-04  0:10:42 1990
    11  5.2764e-02  5.7088e-05  7.3125e-05  0:15:11 1989

  iter  continuity  x-velocity  y-velocity     time/iter
    12  4.5234e-02  4.9686e-05  3.8903e-05  0:12:09 1988
    13  3.9147e-02  4.3142e-05  2.1539e-05  0:09:43 1987
    14  3.2879e-02  3.6226e-05  1.2684e-05  0:14:23 1986
    15  2.8878e-02  3.1838e-05  8.2480e-06  0:11:30 1985
    16  2.4728e-02  2.7036e-05  5.8508e-06  0:09:12 1984
    17  2.1745e-02  2.3325e-05  4.5517e-06  0:07:21 1983
    18  1.9283e-02  2.0230e-05  3.7896e-06  0:12:29 1982
    19  1.7276e-02  1.7943e-05  3.3213e-06  0:09:59 1981
    20  1.5076e-02  1.5308e-05  2.9183e-06  0:07:59 1980
    21  1.3605e-02  1.3569e-05  2.6447e-06  0:06:23 1979
    22  1.1961e-02  1.1651e-05  2.3789e-06  0:11:42 1978

  iter  continuity  x-velocity  y-velocity     time/iter
    23  1.0705e-02  1.0396e-05  2.1762e-06  0:09:21 1977
    24  9.4601e-03  8.9263e-06  1.9853e-06  0:07:29 1976
    25  8.4997e-03  8.0143e-06  1.8245e-06  0:12:34 1975
    26  7.4727e-03  6.8680e-06  1.6701e-06  0:10:03 1974
    27  6.6600e-03  5.9973e-06  1.5499e-06  0:08:02 1973
    28  5.9816e-03  5.2889e-06  1.4427e-06  0:06:25 1972
    29  5.4348e-03  4.6705e-06  1.3427e-06  0:11:42 1971
    30  5.0016e-03  4.1589e-06  1.2569e-06  0:09:22 1970
    31  4.5584e-03  3.7104e-06  1.1798e-06  0:07:29 1969
    32  4.1632e-03  3.2869e-06  1.1150e-06  0:05:59 1968
    33  3.8329e-03  2.9399e-06  1.0544e-06  0:11:20 1967

  iter  continuity  x-velocity  y-velocity     time/iter
    34  3.5471e-03  2.6284e-06  1.0018e-06  0:09:04 1966
    35  3.2743e-03  2.3523e-06  9.5113e-07  0:07:15 1965
    36  3.0270e-03  2.1201e-06  9.0409e-07  0:05:48 1964
    37  2.8148e-03  1.9218e-06  8.6261e-07  0:04:38 1963
    38  2.6248e-03  1.7393e-06  8.2390e-07  0:10:15 1962
    39  2.4495e-03  1.5834e-06  7.8653e-07  0:08:12 1961
    40  2.2876e-03  1.4498e-06  7.5385e-07  0:06:33 1960
    41  2.1360e-03  1.3212e-06  7.2419e-07  0:05:14 1959
    42  1.9963e-03  1.1990e-06  6.9507e-07  0:10:43 1958
    43  1.8717e-03  1.0886e-06  6.6751e-07  0:08:34 1957
    44  1.7643e-03  9.9047e-07  6.4219e-07  0:06:51 1956

  iter  continuity  x-velocity  y-velocity     time/iter
    45  1.6554e-03  9.0127e-07  6.1898e-07  0:05:29 1955
    46  1.5576e-03  8.1846e-07  5.9714e-07  0:10:54 1954
    47  1.4657e-03  7.4350e-07  5.7780e-07  0:08:43 1953
    48  1.3854e-03  6.7808e-07  5.5990e-07  0:06:58 1952
    49  1.3151e-03  6.2290e-07  5.4274e-07  0:05:34 1951
    50  1.2480e-03  5.7617e-07  5.2696e-07  0:10:57 1950
    51  1.1857e-03  5.3601e-07  5.1217e-07  0:08:45 1949
    52  1.1290e-03  4.9923e-07  4.9841e-07  0:07:00 1948
    53  1.0754e-03  4.6562e-07  4.8526e-07  0:05:36 1947
    54  1.0258e-03  4.3516e-07  4.7313e-07  0:10:58 1946
    55  9.7913e-04  4.0799e-07  4.6189e-07  0:08:46 1945

  iter  continuity  x-velocity  y-velocity     time/iter
    56  9.3809e-04  3.8397e-07  4.5149e-07  0:07:01 1944
    57  9.0142e-04  3.6195e-07  4.4190e-07  0:05:36 1943
    58  8.6745e-04  3.4203e-07  4.3304e-07  0:10:57 1942
    59  8.3608e-04  3.2394e-07  4.2449e-07  0:08:46 1941
    60  8.0559e-04  3.0773e-07  4.1655e-07  0:07:00 1940
    61  7.7886e-04  2.9281e-07  4.0889e-07  0:05:36 1939
    62  7.5383e-04  2.7948e-07  4.0151e-07  0:10:56 1938
    63  7.3071e-04  2.6720e-07  3.9449e-07  0:08:45 1937
    64  7.0875e-04  2.5549e-07  3.8759e-07  0:07:00 1936
    65  6.8823e-04  2.4477e-07  3.8087e-07  0:05:35 1935
    66  6.6927e-04  2.3508e-07  3.7431e-07  0:10:55 1934

  iter  continuity  x-velocity  y-velocity     time/iter
    67  6.5112e-04  2.2606e-07  3.6796e-07  0:08:44 1933
    68  6.3424e-04  2.1807e-07  3.6181e-07  0:06:59 1932
    69  6.1862e-04  2.1075e-07  3.5587e-07  0:05:35 1931
    70  6.0391e-04  2.0408e-07  3.5015e-07  0:04:28 1930
    71  5.9006e-04  1.9779e-07  3.4466e-07  0:10:00 1929
    72  5.7755e-04  1.9204e-07  3.3942e-07  0:08:00 1928
    73  5.6593e-04  1.8680e-07  3.3440e-07  0:12:49 1927
    74  5.5497e-04  1.8198e-07  3.2955e-07  0:10:15 1926
    75  5.4481e-04  1.7793e-07  3.2491e-07  0:08:12 1925
    76  5.3511e-04  1.7434e-07  3.2041e-07  0:06:33 1924
    77  5.2594e-04  1.7104e-07  3.1607e-07  0:05:14 1923

  iter  continuity  x-velocity  y-velocity     time/iter
    78  5.1705e-04  1.6780e-07  3.1185e-07  0:10:36 1922
    79  5.0861e-04  1.6477e-07  3.0766e-07  0:08:28 1921
    80  5.0141e-04  1.6383e-07  3.0220e-07  0:06:46 1920
    81  4.9307e-04  1.5937e-07  2.9936e-07  0:11:49 1919
    82  4.8485e-04  1.5546e-07  2.9613e-07  0:09:27 1918
    83  4.7736e-04  1.5222e-07  2.9263e-07  0:07:33 1917
    84  4.6960e-04  1.4880e-07  2.8906e-07  0:06:02 1916
    85  4.6220e-04  1.4546e-07  2.8554e-07  0:04:50 1915
    86  4.5472e-04  1.4214e-07  2.8216e-07  0:10:14 1914
    87  4.4747e-04  1.3924e-07  2.7879e-07  0:08:11 1913
    88  4.4155e-04  1.3853e-07  2.7419e-07  0:06:33 1912

  iter  continuity  x-velocity  y-velocity     time/iter
    89  4.3506e-04  1.3511e-07  2.7185e-07  0:11:36 1911
    90  4.2931e-04  1.3296e-07  2.6917e-07  0:09:17 1910
    91  4.2486e-04  1.3312e-07  2.6513e-07  0:07:25 1909
    92  4.1976e-04  1.3079e-07  2.6306e-07  0:05:56 1908
    93  4.1535e-04  1.2914e-07  2.6059e-07  0:11:06 1907
    94  4.1198e-04  1.2949e-07  2.5679e-07  0:08:53 1906
    95  4.0757e-04  1.2731e-07  2.5483e-07  0:07:06 1905
    96  4.0351e-04  1.2605e-07  2.5253e-07  0:05:40 1904
    97  4.0004e-04  1.2648e-07  2.4898e-07  0:10:53 1903
    98  3.9549e-04  1.2403e-07  2.4726e-07  0:08:42 1902
    99  3.9140e-04  1.2237e-07  2.4522e-07  0:06:57 1901

  iter  continuity  x-velocity  y-velocity     time/iter
   100  3.8808e-04  1.2239e-07  2.4194e-07  0:05:34 1900
   101  3.8365e-04  1.1956e-07  2.4036e-07  0:10:47 1899
   102  3.7953e-04  1.1749e-07  2.3840e-07  0:08:37 1898
   103  3.7545e-04  1.1565e-07  2.3621e-07  0:06:53 1897
   104  3.7141e-04  1.1385e-07  2.3394e-07  0:05:31 1896
   105  3.6822e-04  1.1356e-07  2.3069e-07  0:10:43 1895
   106  3.6369e-04  1.1035e-07  2.2914e-07  0:08:34 1894
   107  3.5956e-04  1.0803e-07  2.2731e-07  0:06:51 1893
   108  3.5566e-04  1.0604e-07  2.2530e-07  0:05:29 1892
   109  3.5190e-04  1.0428e-07  2.2325e-07  0:10:41 1891
   110  3.4823e-04  1.0258e-07  2.2122e-07  0:08:33 1890

  iter  continuity  x-velocity  y-velocity     time/iter
   111  3.4558e-04  1.0245e-07  2.1832e-07  0:06:50 1889
   112  3.4171e-04  9.9674e-08  2.1707e-07  0:05:28 1888
   113  3.3839e-04  9.7699e-08  2.1550e-07  0:10:39 1887
   114  3.3532e-04  9.6262e-08  2.1378e-07  0:08:31 1886
   115  3.3315e-04  9.6522e-08  2.1112e-07  0:06:49 1885
   116  3.2993e-04  9.4640e-08  2.1002e-07  0:05:27 1884
   117  3.2691e-04  9.3617e-08  2.0859e-07  0:10:38 1883
   118  3.2408e-04  9.3005e-08  2.0699e-07  0:08:30 1882
   119  3.2227e-04  9.4009e-08  2.0449e-07  0:06:48 1881
   120  3.1928e-04  9.2521e-08  2.0344e-07  0:05:26 1880
   121  3.1659e-04  9.1743e-08  2.0209e-07  0:10:37 1879

  iter  continuity  x-velocity  y-velocity     time/iter
   122  3.1407e-04  9.1242e-08  2.0058e-07  0:08:29 1878
   123  3.1244e-04  9.2227e-08  1.9821e-07  0:06:47 1877
   124  3.0962e-04  9.0713e-08  1.9721e-07  0:11:41 1876
   125  3.0715e-04  8.9870e-08  1.9590e-07  0:09:20 1875
   126  3.0560e-04  9.0627e-08  1.9368e-07  0:07:28 1874
   127  3.0301e-04  8.9212e-08  1.9274e-07  0:05:58 1873
   128  3.0075e-04  8.8392e-08  1.9149e-07  0:11:01 1872
   129  2.9935e-04  8.9136e-08  1.8933e-07  0:08:48 1871
   130  2.9688e-04  8.7700e-08  1.8842e-07  0:07:02 1870
   131  2.9468e-04  8.6883e-08  1.8722e-07  0:11:52 1869
   132  2.9334e-04  8.7570e-08  1.8513e-07  0:09:29 1868

  iter  continuity  x-velocity  y-velocity     time/iter
   133  2.9096e-04  8.6059e-08  1.8426e-07  0:07:35 1867
   134  2.8884e-04  8.5205e-08  1.8311e-07  0:06:04 1866
   135  2.8751e-04  8.5835e-08  1.8109e-07  0:11:04 1865
   136  2.8512e-04  8.4315e-08  1.8024e-07  0:08:51 1864
   137  2.8307e-04  8.3433e-08  1.7914e-07  0:07:04 1863
   138  2.8181e-04  8.4003e-08  1.7719e-07  0:05:39 1862
   139  2.7951e-04  8.2478e-08  1.7637e-07  0:10:44 1861
   140  2.7749e-04  8.1582e-08  1.7528e-07  0:08:35 1860
   141  2.7563e-04  8.0949e-08  1.7406e-07  0:06:51 1859
   142  2.7455e-04  8.1658e-08  1.7213e-07  0:05:29 1858
   143  2.7235e-04  8.0097e-08  1.7135e-07  0:10:34 1857

  iter  continuity  x-velocity  y-velocity     time/iter
   144  2.7042e-04  7.9217e-08  1.7030e-07  0:08:27 1856
   145  2.6864e-04  7.8589e-08  1.6911e-07  0:06:46 1855
   146  2.6765e-04  7.9295e-08  1.6723e-07  0:11:35 1854
   147  2.6555e-04  7.7815e-08  1.6644e-07  0:09:16 1853
   148  2.6374e-04  7.6947e-08  1.6544e-07  0:13:35 1852
   149  2.6212e-04  7.6323e-08  1.6432e-07  0:10:51 1851
   150  2.6131e-04  7.6993e-08  1.6253e-07  0:14:51 1850
   151  2.5937e-04  7.5556e-08  1.6183e-07  0:11:52 1849
   152  2.5768e-04  7.4699e-08  1.6091e-07  0:15:39 1848
   153  2.5615e-04  7.4079e-08  1.5988e-07  0:12:31 1847
   154  2.5538e-04  7.4712e-08  1.5820e-07  0:16:10 1846

  iter  continuity  x-velocity  y-velocity     time/iter
   155  2.5352e-04  7.3298e-08  1.5755e-07  0:12:55 1845
   156  2.5190e-04  7.2454e-08  1.5669e-07  0:16:29 1844
   157  2.5043e-04  7.1843e-08  1.5571e-07  0:13:11 1843
   158  2.4903e-04  7.1328e-08  1.5469e-07  0:16:40 1842
   159  2.4836e-04  7.1985e-08  1.5307e-07  0:13:20 1841
   160  2.4655e-04  7.0573e-08  1.5248e-07  0:10:40 1840
   161  2.4497e-04  6.9730e-08  1.5170e-07  0:14:39 1839
   162  2.4354e-04  6.9119e-08  1.5082e-07  0:11:43 1838
   163  2.4219e-04  6.8614e-08  1.4989e-07  0:15:29 1837
   164  2.4089e-04  6.8140e-08  1.4896e-07  0:12:23 1836
   165  2.4035e-04  6.8814e-08  1.4747e-07  0:16:01 1835

  iter  continuity  x-velocity  y-velocity     time/iter
   166  2.3868e-04  6.7501e-08  1.4696e-07  0:12:49 1834
   167  2.3721e-04  6.6702e-08  1.4626e-07  0:16:21 1833
   168  2.3587e-04  6.6129e-08  1.4544e-07  0:13:04 1832
   169  2.3461e-04  6.5665e-08  1.4458e-07  0:16:33 1831
   170  2.3340e-04  6.5246e-08  1.4370e-07  0:13:14 1830
   171  2.3223e-04  6.4845e-08  1.4283e-07  0:16:41 1829
   172  2.3186e-04  6.5569e-08  1.4145e-07  0:13:20 1828
   173  2.3035e-04  6.4388e-08  1.4102e-07  0:16:45 1827
   174  2.2906e-04  6.3673e-08  1.4040e-07  0:13:24 1826
   175  2.2795e-04  6.3176e-08  1.3968e-07  0:16:48 1825
   176  2.2694e-04  6.2789e-08  1.3893e-07  0:13:26 1824

  iter  continuity  x-velocity  y-velocity     time/iter
   177  2.2595e-04  6.2442e-08  1.3817e-07  0:16:49 1823
   178  2.2497e-04  6.2107e-08  1.3740e-07  0:13:27 1822
   179  2.2401e-04  6.1771e-08  1.3665e-07  0:10:45 1821
   180  2.2309e-04  6.1440e-08  1.3594e-07  0:14:40 1820
   181  2.2222e-04  6.1116e-08  1.3525e-07  0:11:43 1819
   182  2.2135e-04  6.0805e-08  1.3457e-07  0:15:26 1818
   183  2.2051e-04  6.0505e-08  1.3389e-07  0:12:20 1817
   184  2.1968e-04  6.0218e-08  1.3322e-07  0:15:55 1816
   185  2.1886e-04  5.9942e-08  1.3255e-07  0:12:44 1815
   186  2.1805e-04  5.9676e-08  1.3189e-07  0:16:13 1814
   187  2.1726e-04  5.9415e-08  1.3123e-07  0:12:58 1813

  iter  continuity  x-velocity  y-velocity     time/iter
   188  2.1650e-04  5.9163e-08  1.3059e-07  0:10:22 1812
   189  2.1577e-04  5.8920e-08  1.2995e-07  0:14:20 1811
   190  2.1506e-04  5.8687e-08  1.2935e-07  0:11:27 1810
   191  2.1437e-04  5.8464e-08  1.2875e-07  0:15:11 1809
   192  2.1372e-04  5.8249e-08  1.2815e-07  0:12:09 1808
   193  2.1309e-04  5.8042e-08  1.2755e-07  0:15:44 1807
   194  2.1247e-04  5.7844e-08  1.2695e-07  0:12:35 1806
   195  2.1187e-04  5.7655e-08  1.2634e-07  0:16:05 1805
   196  2.1122e-04  5.7462e-08  1.2574e-07  0:12:51 1804
   197  2.1025e-04  5.7162e-08  1.2512e-07  0:16:17 1803
   198  2.0928e-04  5.6838e-08  1.2448e-07  0:13:01 1802

  iter  continuity  x-velocity  y-velocity     time/iter
   199  2.0825e-04  5.6488e-08  1.2381e-07  0:10:25 1801
   200  2.0715e-04  5.6153e-08  1.2312e-07  0:14:20 1800
   201  2.0601e-04  5.5793e-08  1.2243e-07  0:11:27 1799
   202  2.0492e-04  5.5406e-08  1.2172e-07  0:15:09 1798
   203  2.0385e-04  5.5001e-08  1.2102e-07  0:12:07 1797
   204  2.0287e-04  5.4587e-08  1.2033e-07  0:15:40 1796
   205  2.0186e-04  5.4194e-08  1.1965e-07  0:12:32 1795
   206  2.0084e-04  5.3807e-08  1.1898e-07  0:16:00 1794
   207  1.9981e-04  5.3430e-08  1.1832e-07  0:12:48 1793
   208  1.9878e-04  5.3077e-08  1.1765e-07  0:10:14 1792
   209  1.9783e-04  5.2755e-08  1.1700e-07  0:14:09 1791

  iter  continuity  x-velocity  y-velocity     time/iter
   210  1.9692e-04  5.2468e-08  1.1635e-07  0:11:19 1790
   211  1.9604e-04  5.2214e-08  1.1573e-07  0:15:00 1789
   212  1.9520e-04  5.1988e-08  1.1512e-07  0:12:00 1788
   213  1.9439e-04  5.1771e-08  1.1453e-07  0:15:33 1787
   214  1.9364e-04  5.1559e-08  1.1394e-07  0:12:26 1786
   215  1.9289e-04  5.1345e-08  1.1336e-07  0:15:53 1785
   216  1.9215e-04  5.1129e-08  1.1279e-07  0:12:42 1784
   217  1.9142e-04  5.0915e-08  1.1224e-07  0:16:06 1783
   218  1.9071e-04  5.0703e-08  1.1170e-07  0:12:52 1782
   219  1.9001e-04  5.0488e-08  1.1116e-07  0:10:18 1781
   220  1.8933e-04  5.0269e-08  1.1063e-07  0:08:14 1780

  iter  continuity  x-velocity  y-velocity     time/iter
   221  1.8864e-04  5.0050e-08  1.1009e-07  0:06:35 1779
   222  1.8793e-04  4.9827e-08  1.0956e-07  0:11:11 1778
   223  1.8721e-04  4.9600e-08  1.0903e-07  0:08:57 1777
   224  1.8646e-04  4.9370e-08  1.0849e-07  0:07:09 1776
   225  1.8570e-04  4.9136e-08  1.0796e-07  0:11:38 1775
   226  1.8493e-04  4.8901e-08  1.0743e-07  0:09:18 1774
   227  1.8417e-04  4.8669e-08  1.0690e-07  0:07:26 1773
   228  1.8340e-04  4.8441e-08  1.0637e-07  0:05:57 1772
   229  1.8267e-04  4.8215e-08  1.0585e-07  0:10:40 1771
   230  1.8196e-04  4.7993e-08  1.0533e-07  0:08:31 1770
   231  1.8128e-04  4.7773e-08  1.0483e-07  0:06:49 1769

  iter  continuity  x-velocity  y-velocity     time/iter
   232  1.8063e-04  4.7554e-08  1.0434e-07  0:05:27 1768
   233  1.7999e-04  4.7341e-08  1.0386e-07  0:10:15 1767
   234  1.7936e-04  4.7132e-08  1.0338e-07  0:08:12 1766
   235  1.7872e-04  4.6926e-08  1.0291e-07  0:06:33 1765
   236  1.7809e-04  4.6725e-08  1.0244e-07  0:05:14 1764
   237  1.7746e-04  4.6526e-08  1.0198e-07  0:04:11 1763
   238  1.7683e-04  4.6330e-08  1.0152e-07  0:09:13 1762
   239  1.7620e-04  4.6135e-08  1.0106e-07  0:07:22 1761
   240  1.7558e-04  4.5941e-08  1.0061e-07  0:05:54 1760
   241  1.7496e-04  4.5748e-08  1.0015e-07  0:04:43 1759
   242  1.7434e-04  4.5556e-08  9.9698e-08  0:09:38 1758

  iter  continuity  x-velocity  y-velocity     time/iter
   243  1.7373e-04  4.5365e-08  9.9247e-08  0:07:42 1757
   244  1.7312e-04  4.5174e-08  9.8798e-08  0:06:09 1756
   245  1.7252e-04  4.4985e-08  9.8352e-08  0:04:55 1755
   246  1.7192e-04  4.4796e-08  9.7908e-08  0:09:47 1754
   247  1.7133e-04  4.4609e-08  9.7470e-08  0:07:49 1753
   248  1.7074e-04  4.4423e-08  9.7037e-08  0:06:15 1752
   249  1.7016e-04  4.4239e-08  9.6608e-08  0:05:00 1751
   250  1.6959e-04  4.4056e-08  9.6183e-08  0:09:50 1750
   251  1.6901e-04  4.3874e-08  9.5760e-08  0:07:52 1749
   252  1.6844e-04  4.3694e-08  9.5336e-08  0:06:17 1748
   253  1.6788e-04  4.3516e-08  9.4925e-08  0:05:01 1747

  iter  continuity  x-velocity  y-velocity     time/iter
   254  1.6731e-04  4.3339e-08  9.4520e-08  0:04:01 1746
   255  1.6675e-04  4.3164e-08  9.4117e-08  0:09:02 1745
   256  1.6619e-04  4.2990e-08  9.3715e-08  0:07:13 1744
   257  1.6564e-04  4.2818e-08  9.3317e-08  0:05:46 1743
   258  1.6509e-04  4.2647e-08  9.2923e-08  0:04:37 1742
   259  1.6454e-04  4.2478e-08  9.2533e-08  0:09:30 1741
   260  1.6399e-04  4.2311e-08  9.2147e-08  0:07:35 1740
   261  1.6345e-04  4.2145e-08  9.1765e-08  0:06:04 1739
   262  1.6290e-04  4.1983e-08  9.1386e-08  0:04:51 1738
   263  1.6237e-04  4.1821e-08  9.1009e-08  0:09:40 1737
   264  1.6184e-04  4.1662e-08  9.0635e-08  0:07:44 1736

  iter  continuity  x-velocity  y-velocity     time/iter
   265  1.6131e-04  4.1503e-08  9.0264e-08  0:06:11 1735
   266  1.6078e-04  4.1345e-08  8.9895e-08  0:04:57 1734
   267  1.6025e-04  4.1188e-08  8.9531e-08  0:09:44 1733
   268  1.5973e-04  4.1032e-08  8.9170e-08  0:07:47 1732
   269  1.5922e-04  4.0877e-08  8.8813e-08  0:06:13 1731
   270  1.5871e-04  4.0723e-08  8.8459e-08  0:04:58 1730
   271  1.5822e-04  4.0571e-08  8.8119e-08  0:03:59 1729
   272  1.5775e-04  4.0420e-08  8.7786e-08  0:08:56 1728
   273  1.5727e-04  4.0270e-08  8.7454e-08  0:07:09 1727
   274  1.5681e-04  4.0138e-08  8.7122e-08  0:05:43 1726
   275  1.5635e-04  3.9999e-08  8.6790e-08  0:10:19 1725

  iter  continuity  x-velocity  y-velocity     time/iter
   276  1.5587e-04  3.9857e-08  8.6462e-08  0:08:15 1724
   277  1.5540e-04  3.9715e-08  8.6135e-08  0:06:36 1723
   278  1.5492e-04  3.9575e-08  8.5813e-08  0:05:16 1722
   279  1.5445e-04  3.9435e-08  8.5494e-08  0:09:57 1721
   280  1.5399e-04  3.9294e-08  8.5177e-08  0:07:57 1720
   281  1.5353e-04  3.9154e-08  8.4864e-08  0:06:22 1719
   282  1.5308e-04  3.9015e-08  8.4555e-08  0:05:05 1718
   283  1.5263e-04  3.8876e-08  8.4248e-08  0:09:47 1717
   284  1.5218e-04  3.8738e-08  8.3942e-08  0:07:50 1716
   285  1.5173e-04  3.8600e-08  8.3637e-08  0:06:16 1715
   286  1.5128e-04  3.8462e-08  8.3331e-08  0:05:00 1714

  iter  continuity  x-velocity  y-velocity     time/iter
   287  1.5082e-04  3.8325e-08  8.3022e-08  0:09:43 1713
   288  1.5037e-04  3.8187e-08  8.2713e-08  0:07:46 1712
   289  1.4991e-04  3.8049e-08  8.2403e-08  0:06:12 1711
   290  1.4944e-04  3.7911e-08  8.2093e-08  0:04:58 1710
   291  1.4897e-04  3.7772e-08  8.1781e-08  0:09:40 1709
   292  1.4850e-04  3.7634e-08  8.1472e-08  0:07:44 1708
   293  1.4804e-04  3.7495e-08  8.1161e-08  0:06:11 1707
   294  1.4757e-04  3.7356e-08  8.0851e-08  0:10:38 1706
   295  1.4709e-04  3.7218e-08  8.0544e-08  0:08:30 1705
   296  1.4662e-04  3.7080e-08  8.0240e-08  0:12:28 1704
   297  1.4616e-04  3.6942e-08  7.9940e-08  0:09:58 1703

  iter  continuity  x-velocity  y-velocity     time/iter
   298  1.4571e-04  3.6807e-08  7.9643e-08  0:13:39 1702
   299  1.4526e-04  3.6671e-08  7.9349e-08  0:10:55 1701
   300  1.4481e-04  3.6537e-08  7.9053e-08  0:08:43 1700
   301  1.4437e-04  3.6404e-08  7.8756e-08  0:06:58 1699
   302  1.4392e-04  3.6271e-08  7.8459e-08  0:11:14 1698
   303  1.4346e-04  3.6138e-08  7.8161e-08  0:08:59 1697
   304  1.4301e-04  3.6005e-08  7.7862e-08  0:07:11 1696
   305  1.4255e-04  3.5872e-08  7.7562e-08  0:05:45 1695
   306  1.4209e-04  3.5739e-08  7.7263e-08  0:10:14 1694
   307  1.4163e-04  3.5605e-08  7.6964e-08  0:08:11 1693
   308  1.4117e-04  3.5472e-08  7.6665e-08  0:06:33 1692

  iter  continuity  x-velocity  y-velocity     time/iter
   309  1.4071e-04  3.5338e-08  7.6368e-08  0:05:14 1691
   310  1.4025e-04  3.5205e-08  7.6073e-08  0:04:11 1690
   311  1.3978e-04  3.5072e-08  7.5779e-08  0:08:58 1689
   312  1.3932e-04  3.4940e-08  7.5485e-08  0:07:11 1688
   313  1.3886e-04  3.4808e-08  7.5192e-08  0:05:44 1687
   314  1.3840e-04  3.4677e-08  7.4900e-08  0:04:35 1686
   315  1.3795e-04  3.4546e-08  7.4608e-08  0:09:17 1685
   316  1.3749e-04  3.4417e-08  7.4317e-08  0:07:25 1684
   317  1.3704e-04  3.4288e-08  7.4028e-08  0:05:56 1683
   318  1.3659e-04  3.4160e-08  7.3740e-08  0:04:45 1682
   319  1.3615e-04  3.4033e-08  7.3454e-08  0:09:24 1681

  iter  continuity  x-velocity  y-velocity     time/iter
   320  1.3571e-04  3.3907e-08  7.3172e-08  0:07:31 1680
   321  1.3529e-04  3.3783e-08  7.2895e-08  0:06:00 1679
   322  1.3486e-04  3.3659e-08  7.2621e-08  0:10:24 1678
   323  1.3444e-04  3.3537e-08  7.2350e-08  0:08:19 1677
   324  1.3403e-04  3.3417e-08  7.2079e-08  0:06:39 1676
   325  1.3360e-04  3.3296e-08  7.1804e-08  0:05:19 1675
   326  1.3314e-04  3.3175e-08  7.1522e-08  0:04:15 1674
   327  1.3267e-04  3.3052e-08  7.1239e-08  0:08:58 1673
   328  1.3220e-04  3.2927e-08  7.0957e-08  0:07:10 1672
   329  1.3175e-04  3.2803e-08  7.0678e-08  0:05:44 1671
   330  1.3131e-04  3.2681e-08  7.0403e-08  0:04:35 1670

  iter  continuity  x-velocity  y-velocity     time/iter
   331  1.3087e-04  3.2559e-08  7.0132e-08  0:09:14 1669
   332  1.3044e-04  3.2438e-08  6.9863e-08  0:07:23 1668
   333  1.3000e-04  3.2319e-08  6.9598e-08  0:05:54 1667
   334  1.2958e-04  3.2201e-08  6.9336e-08  0:04:43 1666
   335  1.2915e-04  3.2084e-08  6.9077e-08  0:09:19 1665
   336  1.2873e-04  3.1968e-08  6.8820e-08  0:07:27 1664
   337  1.2831e-04  3.1853e-08  6.8564e-08  0:05:58 1663
   338  1.2790e-04  3.1739e-08  6.8309e-08  0:04:46 1662
   339  1.2749e-04  3.1626e-08  6.8056e-08  0:09:21 1661
   340  1.2708e-04  3.1513e-08  6.7802e-08  0:07:28 1660
   341  1.2667e-04  3.1402e-08  6.7550e-08  0:05:58 1659

  iter  continuity  x-velocity  y-velocity     time/iter
   342  1.2626e-04  3.1291e-08  6.7299e-08  0:04:47 1658
   343  1.2586e-04  3.1180e-08  6.7051e-08  0:03:49 1657
   344  1.2546e-04  3.1071e-08  6.6805e-08  0:08:34 1656
   345  1.2506e-04  3.0962e-08  6.6561e-08  0:06:51 1655
   346  1.2467e-04  3.0854e-08  6.6321e-08  0:05:29 1654
   347  1.2427e-04  3.0747e-08  6.6083e-08  0:04:23 1653
   348  1.2389e-04  3.0641e-08  6.5847e-08  0:09:01 1652
   349  1.2350e-04  3.0536e-08  6.5611e-08  0:07:12 1651
   350  1.2312e-04  3.0431e-08  6.5375e-08  0:05:46 1650
   351  1.2275e-04  3.0328e-08  6.5143e-08  0:04:36 1649
   352  1.2237e-04  3.0225e-08  6.4916e-08  0:09:10 1648

  iter  continuity  x-velocity  y-velocity     time/iter
   353  1.2200e-04  3.0123e-08  6.4689e-08  0:07:20 1647
   354  1.2163e-04  3.0021e-08  6.4464e-08  0:05:52 1646
   355  1.2127e-04  2.9920e-08  6.4240e-08  0:04:41 1645
   356  1.2091e-04  2.9820e-08  6.4017e-08  0:03:45 1644
   357  1.2055e-04  2.9719e-08  6.3795e-08  0:08:28 1643
   358  1.2020e-04  2.9620e-08  6.3576e-08  0:06:47 1642
   359  1.1986e-04  2.9521e-08  6.3358e-08  0:05:25 1641
   360  1.1951e-04  2.9423e-08  6.3141e-08  0:04:20 1640
   361  1.1917e-04  2.9325e-08  6.2926e-08  0:08:56 1639
   362  1.1883e-04  2.9229e-08  6.2712e-08  0:07:08 1638
   363  1.1850e-04  2.9134e-08  6.2500e-08  0:05:42 1637

  iter  continuity  x-velocity  y-velocity     time/iter
   364  1.1816e-04  2.9039e-08  6.2290e-08  0:04:34 1636
   365  1.1782e-04  2.8945e-08  6.2081e-08  0:09:06 1635
   366  1.1749e-04  2.8852e-08  6.1874e-08  0:07:16 1634
   367  1.1715e-04  2.8760e-08  6.1669e-08  0:05:49 1633
   368  1.1682e-04  2.8668e-08  6.1465e-08  0:04:39 1632
   369  1.1648e-04  2.8576e-08  6.1262e-08  0:03:43 1631
   370  1.1615e-04  2.8484e-08  6.1059e-08  0:08:24 1630
   371  1.1581e-04  2.8392e-08  6.0854e-08  0:06:43 1629
   372  1.1549e-04  2.8301e-08  6.0652e-08  0:05:22 1628
   373  1.1516e-04  2.8210e-08  6.0452e-08  0:09:43 1627
   374  1.1484e-04  2.8119e-08  6.0253e-08  0:07:46 1626

  iter  continuity  x-velocity  y-velocity     time/iter
   375  1.1451e-04  2.8029e-08  6.0055e-08  0:06:13 1625
   376  1.1418e-04  2.7940e-08  5.9858e-08  0:04:58 1624
   377  1.1385e-04  2.7852e-08  5.9660e-08  0:09:23 1623
   378  1.1351e-04  2.7764e-08  5.9463e-08  0:07:30 1622
   379  1.1318e-04  2.7676e-08  5.9266e-08  0:06:00 1621
   380  1.1285e-04  2.7588e-08  5.9070e-08  0:04:48 1620
   381  1.1252e-04  2.7500e-08  5.8875e-08  0:09:14 1619
   382  1.1220e-04  2.7414e-08  5.8681e-08  0:07:23 1618
   383  1.1187e-04  2.7327e-08  5.8489e-08  0:05:54 1617
   384  1.1156e-04  2.7242e-08  5.8298e-08  0:04:43 1616
   385  1.1124e-04  2.7156e-08  5.8109e-08  0:03:46 1615

  iter  continuity  x-velocity  y-velocity     time/iter
   386  1.1093e-04  2.7071e-08  5.7920e-08  0:08:24 1614
   387  1.1061e-04  2.6986e-08  5.7733e-08  0:06:43 1613
   388  1.1030e-04  2.6901e-08  5.7546e-08  0:05:22 1612
   389  1.1000e-04  2.6817e-08  5.7360e-08  0:04:17 1611
   390  1.0970e-04  2.6733e-08  5.7175e-08  0:08:48 1610
   391  1.0939e-04  2.6649e-08  5.6991e-08  0:07:02 1609
   392  1.0910e-04  2.6565e-08  5.6809e-08  0:05:37 1608
   393  1.0880e-04  2.6482e-08  5.6630e-08  0:04:30 1607
   394  1.0851e-04  2.6399e-08  5.6454e-08  0:08:57 1606
   395  1.0821e-04  2.6317e-08  5.6280e-08  0:07:09 1605
   396  1.0792e-04  2.6235e-08  5.6106e-08  0:05:43 1604

  iter  continuity  x-velocity  y-velocity     time/iter
   397  1.0763e-04  2.6155e-08  5.5934e-08  0:04:34 1603
   398  1.0735e-04  2.6074e-08  5.5763e-08  0:03:39 1602
   399  1.0705e-04  2.5995e-08  5.5591e-08  0:08:16 1601
   400  1.0676e-04  2.5917e-08  5.5420e-08  0:06:36 1600
   401  1.0647e-04  2.5839e-08  5.5250e-08  0:05:17 1599
   402  1.0619e-04  2.5761e-08  5.5080e-08  0:04:13 1598
   403  1.0590e-04  2.5685e-08  5.4914e-08  0:08:42 1597
   404  1.0562e-04  2.5609e-08  5.4751e-08  0:06:57 1596
   405  1.0533e-04  2.5533e-08  5.4588e-08  0:05:34 1595
   406  1.0504e-04  2.5458e-08  5.4425e-08  0:04:27 1594
   407  1.0475e-04  2.5384e-08  5.4261e-08  0:08:52 1593

  iter  continuity  x-velocity  y-velocity     time/iter
   408  1.0446e-04  2.5310e-08  5.4095e-08  0:07:05 1592
   409  1.0418e-04  2.5236e-08  5.3930e-08  0:05:40 1591
   410  1.0389e-04  2.5162e-08  5.3765e-08  0:04:32 1590
   411  1.0361e-04  2.5089e-08  5.3601e-08  0:03:37 1589
   412  1.0332e-04  2.5016e-08  5.3437e-08  0:08:11 1588
   413  1.0304e-04  2.4943e-08  5.3274e-08  0:06:33 1587
   414  1.0276e-04  2.4871e-08  5.3110e-08  0:05:14 1586
   415  1.0248e-04  2.4799e-08  5.2947e-08  0:04:11 1585
   416  1.0219e-04  2.4727e-08  5.2782e-08  0:08:38 1584
   417  1.0191e-04  2.4654e-08  5.2618e-08  0:06:54 1583
   418  1.0162e-04  2.4582e-08  5.2454e-08  0:05:31 1582

  iter  continuity  x-velocity  y-velocity     time/iter
   419  1.0134e-04  2.4509e-08  5.2292e-08  0:04:24 1581
   420  1.0105e-04  2.4436e-08  5.2130e-08  0:08:47 1580
   421  1.0076e-04  2.4362e-08  5.1968e-08  0:07:02 1579
   422  1.0047e-04  2.4289e-08  5.1804e-08  0:05:37 1578
   423  1.0018e-04  2.4215e-08  5.1640e-08  0:09:45 1577
   424  9.9885e-05  2.4140e-08  5.1478e-08  0:07:48 1576
   425  9.9598e-05  2.4066e-08  5.1316e-08  0:06:14 1575
   426  9.9312e-05  2.3992e-08  5.1154e-08  0:04:59 1574
   427  9.9026e-05  2.3919e-08  5.0994e-08  0:03:59 1573
   428  9.8745e-05  2.3846e-08  5.0832e-08  0:08:25 1572
   429  9.8467e-05  2.3773e-08  5.0671e-08  0:06:44 1571

  iter  continuity  x-velocity  y-velocity     time/iter
   430  9.8195e-05  2.3701e-08  5.0511e-08  0:05:23 1570
   431  9.7923e-05  2.3630e-08  5.0352e-08  0:04:18 1569
   432  9.7654e-05  2.3560e-08  5.0194e-08  0:08:40 1568
   433  9.7388e-05  2.3490e-08  5.0043e-08  0:06:56 1567
   434  9.7130e-05  2.3422e-08  4.9891e-08  0:05:32 1566
   435  9.6872e-05  2.3354e-08  4.9740e-08  0:04:26 1565
   436  9.6622e-05  2.3287e-08  4.9590e-08  0:08:45 1564
   437  9.6381e-05  2.3220e-08  4.9442e-08  0:07:00 1563
   438  9.6140e-05  2.3152e-08  4.9294e-08  0:05:36 1562
   439  9.5894e-05  2.3086e-08  4.9149e-08  0:04:28 1561
   440  9.5647e-05  2.3020e-08  4.9004e-08  0:08:47 1560

  iter  continuity  x-velocity  y-velocity     time/iter
   441  9.5397e-05  2.2954e-08  4.8859e-08  0:07:01 1559
   442  9.5141e-05  2.2889e-08  4.8712e-08  0:05:37 1558
   443  9.4882e-05  2.2824e-08  4.8563e-08  0:04:29 1557
   444  9.4628e-05  2.2758e-08  4.8414e-08  0:03:35 1556
   445  9.4380e-05  2.2690e-08  4.8265e-08  0:08:03 1555
   446  9.4135e-05  2.2623e-08  4.8120e-08  0:06:26 1554
   447  9.3886e-05  2.2556e-08  4.7979e-08  0:05:09 1553
   448  9.3636e-05  2.2489e-08  4.7838e-08  0:04:07 1552
   449  9.3395e-05  2.2423e-08  4.7699e-08  0:08:28 1551
   450  9.3155e-05  2.2357e-08  4.7560e-08  0:06:46 1550
   451  9.2916e-05  2.2291e-08  4.7422e-08  0:05:24 1549

  iter  continuity  x-velocity  y-velocity     time/iter
   452  9.2680e-05  2.2225e-08  4.7284e-08  0:04:19 1548
   453  9.2445e-05  2.2160e-08  4.7149e-08  0:03:27 1547
   454  9.2210e-05  2.2096e-08  4.7015e-08  0:07:55 1546
   455  9.1977e-05  2.2032e-08  4.6880e-08  0:06:20 1545
   456  9.1744e-05  2.1968e-08  4.6746e-08  0:05:04 1544
   457  9.1510e-05  2.1905e-08  4.6613e-08  0:04:03 1543
   458  9.1276e-05  2.1843e-08  4.6480e-08  0:08:22 1542
   459  9.1042e-05  2.1781e-08  4.6348e-08  0:06:42 1541
   460  9.0808e-05  2.1719e-08  4.6216e-08  0:05:21 1540
   461  9.0573e-05  2.1658e-08  4.6088e-08  0:04:17 1539
   462  9.0342e-05  2.1598e-08  4.5961e-08  0:08:33 1538

  iter  continuity  x-velocity  y-velocity     time/iter
   463  9.0116e-05  2.1539e-08  4.5834e-08  0:06:50 1537
   464  8.9890e-05  2.1481e-08  4.5710e-08  0:05:28 1536
   465  8.9663e-05  2.1422e-08  4.5585e-08  0:04:22 1535
   466  8.9435e-05  2.1364e-08  4.5460e-08  0:03:30 1534
   467  8.9208e-05  2.1305e-08  4.5336e-08  0:07:54 1533
   468  8.8984e-05  2.1247e-08  4.5211e-08  0:06:19 1532
   469  8.8759e-05  2.1189e-08  4.5087e-08  0:05:03 1531
   470  8.8534e-05  2.1130e-08  4.4966e-08  0:09:08 1530
   471  8.8309e-05  2.1072e-08  4.4846e-08  0:07:18 1529
   472  8.8086e-05  2.1015e-08  4.4725e-08  0:05:50 1528
   473  8.7863e-05  2.0958e-08  4.4604e-08  0:04:40 1527

  iter  continuity  x-velocity  y-velocity     time/iter
   474  8.7639e-05  2.0900e-08  4.4482e-08  0:08:49 1526
   475  8.7414e-05  2.0843e-08  4.4359e-08  0:07:03 1525
   476  8.7192e-05  2.0786e-08  4.4237e-08  0:05:38 1524
   477  8.6973e-05  2.0730e-08  4.4116e-08  0:04:30 1523
   478  8.6758e-05  2.0675e-08  4.3996e-08  0:08:41 1522
   479  8.6544e-05  2.0621e-08  4.3880e-08  0:06:56 1521
   480  8.6334e-05  2.0567e-08  4.3765e-08  0:05:33 1520
   481  8.6124e-05  2.0513e-08  4.3650e-08  0:04:26 1519
   482  8.5915e-05  2.0460e-08  4.3535e-08  0:03:33 1518
   483  8.5705e-05  2.0407e-08  4.3422e-08  0:07:53 1517
   484  8.5496e-05  2.0354e-08  4.3309e-08  0:06:18 1516

  iter  continuity  x-velocity  y-velocity     time/iter
   485  8.5288e-05  2.0301e-08  4.3196e-08  0:05:03 1515
   486  8.5081e-05  2.0247e-08  4.3084e-08  0:04:02 1514
   487  8.4873e-05  2.0194e-08  4.2973e-08  0:08:16 1513
   488  8.4668e-05  2.0142e-08  4.2861e-08  0:06:37 1512
   489  8.4463e-05  2.0089e-08  4.2749e-08  0:05:17 1511
   490  8.4257e-05  2.0037e-08  4.2637e-08  0:04:13 1510
   491  8.4050e-05  1.9984e-08  4.2524e-08  0:08:24 1509
   492  8.3845e-05  1.9931e-08  4.2411e-08  0:06:43 1508
   493  8.3639e-05  1.9879e-08  4.2298e-08  0:05:22 1507
   494  8.3432e-05  1.9827e-08  4.2188e-08  0:04:18 1506
   495  8.3226e-05  1.9776e-08  4.2078e-08  0:08:27 1505

  iter  continuity  x-velocity  y-velocity     time/iter
   496  8.3026e-05  1.9726e-08  4.1969e-08  0:06:45 1504
   497  8.2824e-05  1.9676e-08  4.1861e-08  0:05:24 1503
   498  8.2621e-05  1.9626e-08  4.1752e-08  0:04:19 1502
   499  8.2416e-05  1.9576e-08  4.1642e-08  0:03:27 1501
   500  8.2209e-05  1.9526e-08  4.1532e-08  0:07:46 1500
   501  8.2003e-05  1.9475e-08  4.1421e-08  0:06:12 1499
   502  8.1796e-05  1.9424e-08  4.1309e-08  0:04:58 1498
   503  8.1589e-05  1.9373e-08  4.1198e-08  0:03:58 1497
   504  8.1380e-05  1.9320e-08  4.1088e-08  0:08:09 1496
   505  8.1171e-05  1.9268e-08  4.0978e-08  0:06:31 1495
   506  8.0963e-05  1.9217e-08  4.0865e-08  0:05:13 1494

  iter  continuity  x-velocity  y-velocity     time/iter
   507  8.0755e-05  1.9165e-08  4.0752e-08  0:04:10 1493
   508  8.0545e-05  1.9112e-08  4.0637e-08  0:08:18 1492
   509  8.0334e-05  1.9059e-08  4.0521e-08  0:06:38 1491
   510  8.0125e-05  1.9006e-08  4.0405e-08  0:05:18 1490
   511  7.9919e-05  1.8955e-08  4.0288e-08  0:04:15 1489
   512  7.9712e-05  1.8903e-08  4.0176e-08  0:03:24 1488
   513  7.9509e-05  1.8851e-08  4.0064e-08  0:07:40 1487
   514  7.9306e-05  1.8801e-08  3.9951e-08  0:06:08 1486
   515  7.9103e-05  1.8751e-08  3.9839e-08  0:04:54 1485
   516  7.8900e-05  1.8700e-08  3.9727e-08  0:03:55 1484
   517  7.8696e-05  1.8649e-08  3.9615e-08  0:08:05 1483

  iter  continuity  x-velocity  y-velocity     time/iter
   518  7.8495e-05  1.8598e-08  3.9502e-08  0:06:27 1482
   519  7.8293e-05  1.8547e-08  3.9389e-08  0:05:10 1481
   520  7.8092e-05  1.8496e-08  3.9279e-08  0:09:04 1480
   521  7.7892e-05  1.8446e-08  3.9169e-08  0:07:15 1479
   522  7.7691e-05  1.8396e-08  3.9059e-08  0:05:47 1478
   523  7.7490e-05  1.8346e-08  3.8950e-08  0:04:38 1477
   524  7.7290e-05  1.8296e-08  3.8840e-08  0:08:37 1476
   525  7.7089e-05  1.8246e-08  3.8731e-08  0:06:54 1475
   526  7.6888e-05  1.8196e-08  3.8621e-08  0:05:31 1474
   527  7.6687e-05  1.8147e-08  3.8517e-08  0:04:24 1473
   528  7.6485e-05  1.8099e-08  3.8414e-08  0:03:31 1472

  iter  continuity  x-velocity  y-velocity     time/iter
   529  7.6289e-05  1.8052e-08  3.8312e-08  0:07:43 1471
   530  7.6096e-05  1.8006e-08  3.8211e-08  0:06:10 1470
   531  7.5904e-05  1.7960e-08  3.8110e-08  0:04:56 1469
   532  7.5713e-05  1.7914e-08  3.8009e-08  0:03:57 1468
   533  7.5522e-05  1.7868e-08  3.7909e-08  0:08:03 1467
   534  7.5331e-05  1.7822e-08  3.7809e-08  0:06:26 1466
   535  7.5143e-05  1.7776e-08  3.7708e-08  0:05:08 1465
   536  7.4954e-05  1.7730e-08  3.7609e-08  0:04:07 1464
   537  7.4765e-05  1.7683e-08  3.7511e-08  0:03:17 1463
   538  7.4575e-05  1.7637e-08  3.7412e-08  0:07:30 1462
   539  7.4386e-05  1.7592e-08  3.7314e-08  0:06:00 1461

  iter  continuity  x-velocity  y-velocity     time/iter
   540  7.4199e-05  1.7547e-08  3.7216e-08  0:04:48 1460
   541  7.4014e-05  1.7502e-08  3.7119e-08  0:03:50 1459
   542  7.3832e-05  1.7457e-08  3.7024e-08  0:07:55 1458
   543  7.3650e-05  1.7413e-08  3.6930e-08  0:06:20 1457
   544  7.3476e-05  1.7370e-08  3.6837e-08  0:05:04 1456
   545  7.3308e-05  1.7328e-08  3.6749e-08  0:04:03 1455
   546  7.3136e-05  1.7287e-08  3.6655e-08  0:08:05 1454
   547  7.2961e-05  1.7246e-08  3.6554e-08  0:06:28 1453
   548  7.2785e-05  1.7204e-08  3.6451e-08  0:05:10 1452
   549  7.2610e-05  1.7161e-08  3.6349e-08  0:04:08 1451
   550  7.2438e-05  1.7119e-08  3.6249e-08  0:08:08 1450

  iter  continuity  x-velocity  y-velocity     time/iter
   551  7.2275e-05  1.7076e-08  3.6150e-08  0:06:30 1449
   552  7.2116e-05  1.7034e-08  3.6054e-08  0:05:12 1448
   553  7.1963e-05  1.6993e-08  3.5963e-08  0:04:09 1447
   554  7.1813e-05  1.6953e-08  3.5873e-08  0:03:19 1446
   555  7.1666e-05  1.6913e-08  3.5782e-08  0:07:28 1445
   556  7.1511e-05  1.6873e-08  3.5688e-08  0:05:58 1444
   557  7.1348e-05  1.6831e-08  3.5590e-08  0:04:47 1443
   558  7.1179e-05  1.6787e-08  3.5490e-08  0:03:49 1442
   559  7.1011e-05  1.6744e-08  3.5391e-08  0:07:51 1441
   560  7.0836e-05  1.6700e-08  3.5295e-08  0:06:17 1440
   561  7.0651e-05  1.6656e-08  3.5201e-08  0:05:01 1439

  iter  continuity  x-velocity  y-velocity     time/iter
   562  7.0458e-05  1.6612e-08  3.5106e-08  0:04:01 1438
   563  7.0262e-05  1.6568e-08  3.5007e-08  0:08:00 1437
   564  7.0063e-05  1.6523e-08  3.4907e-08  0:06:24 1436
   565  6.9864e-05  1.6478e-08  3.4809e-08  0:05:07 1435
   566  6.9666e-05  1.6431e-08  3.4710e-08  0:04:05 1434
   567  6.9469e-05  1.6384e-08  3.4609e-08  0:08:03 1433
   568  6.9271e-05  1.6338e-08  3.4508e-08  0:06:26 1432
   569  6.9105e-05  1.6290e-08  3.4410e-08  0:05:08 1431
   570  6.8960e-05  1.6243e-08  3.4319e-08  0:04:07 1430
   571  6.8818e-05  1.6202e-08  3.4236e-08  0:08:03 1429
   572  6.8695e-05  1.6167e-08  3.4165e-08  0:06:26 1428

  iter  continuity  x-velocity  y-velocity     time/iter
   573  6.8575e-05  1.6137e-08  3.4097e-08  0:05:09 1427
   574  6.8458e-05  1.6110e-08  3.4030e-08  0:04:07 1426
   575  6.8340e-05  1.6082e-08  3.3961e-08  0:08:02 1425
   576  6.8217e-05  1.6052e-08  3.3889e-08  0:06:26 1424
   577  6.8084e-05  1.6023e-08  3.3817e-08  0:05:08 1423
   578  6.7948e-05  1.5994e-08  3.3745e-08  0:04:06 1422
   579  6.7828e-05  1.5965e-08  3.3683e-08  0:08:01 1421
   580  6.7711e-05  1.5938e-08  3.3621e-08  0:06:25 1420
   581  6.7589e-05  1.5910e-08  3.3557e-08  0:05:08 1419
   582  6.7430e-05  1.5880e-08  3.3491e-08  0:04:06 1418
   583  6.7273e-05  1.5849e-08  3.3420e-08  0:03:17 1417

  iter  continuity  x-velocity  y-velocity     time/iter
   584  6.7115e-05  1.5814e-08  3.3343e-08  0:07:20 1416
   585  6.6934e-05  1.5776e-08  3.3260e-08  0:05:52 1415
   586  6.6731e-05  1.5735e-08  3.3171e-08  0:04:41 1414
   587  6.6510e-05  1.5688e-08  3.3079e-08  0:03:45 1413
   588  6.6285e-05  1.5639e-08  3.2980e-08  0:07:42 1412
   589  6.6051e-05  1.5587e-08  3.2876e-08  0:06:10 1411
   590  6.5817e-05  1.5532e-08  3.2766e-08  0:04:55 1410
   591  6.5594e-05  1.5475e-08  3.2654e-08  0:03:56 1409
   592  6.5377e-05  1.5419e-08  3.2542e-08  0:07:50 1408
   593  6.5213e-05  1.5366e-08  3.2441e-08  0:06:16 1407
   594  6.5061e-05  1.5313e-08  3.2349e-08  0:05:01 1406

  iter  continuity  x-velocity  y-velocity     time/iter
   595  6.4917e-05  1.5266e-08  3.2261e-08  0:04:00 1405
   596  6.4759e-05  1.5222e-08  3.2173e-08  0:03:12 1404
   597  6.4608e-05  1.5186e-08  3.2093e-08  0:07:14 1403
   598  6.4494e-05  1.5158e-08  3.2025e-08  0:05:47 1402
   599  6.4388e-05  1.5131e-08  3.1963e-08  0:04:37 1401
   600  6.4286e-05  1.5102e-08  3.1903e-08  0:03:42 1400
   601  6.4178e-05  1.5074e-08  3.1837e-08  0:07:37 1399
   602  6.4048e-05  1.5047e-08  3.1771e-08  0:06:05 1398
   603  6.3941e-05  1.5022e-08  3.1716e-08  0:04:52 1397
   604  6.3859e-05  1.4997e-08  3.1664e-08  0:03:54 1396
   605  6.3783e-05  1.4974e-08  3.1615e-08  0:03:07 1395

  iter  continuity  x-velocity  y-velocity     time/iter
   606  6.3688e-05  1.4953e-08  3.1561e-08  0:07:08 1394
   607  6.3574e-05  1.4929e-08  3.1499e-08  0:05:42 1393
   608  6.3470e-05  1.4902e-08  3.1430e-08  0:04:34 1392
   609  6.3374e-05  1.4871e-08  3.1355e-08  0:03:39 1391
   610  6.3273e-05  1.4837e-08  3.1282e-08  0:07:33 1390
   611  6.3161e-05  1.4801e-08  3.1213e-08  0:06:02 1389
   612  6.3025e-05  1.4762e-08  3.1141e-08  0:04:49 1388
   613  6.2876e-05  1.4723e-08  3.1063e-08  0:03:51 1387
   614  6.2715e-05  1.4684e-08  3.0978e-08  0:07:42 1386
   615  6.2538e-05  1.4642e-08  3.0892e-08  0:06:09 1385
   616  6.2353e-05  1.4598e-08  3.0802e-08  0:04:55 1384

  iter  continuity  x-velocity  y-velocity     time/iter
   617  6.2162e-05  1.4553e-08  3.0710e-08  0:08:33 1383
   618  6.1971e-05  1.4507e-08  3.0618e-08  0:06:50 1382
   619  6.1781e-05  1.4462e-08  3.0526e-08  0:05:28 1381
   620  6.1599e-05  1.4417e-08  3.0436e-08  0:04:22 1380
   621  6.1419e-05  1.4373e-08  3.0350e-08  0:03:29 1379
   622  6.1246e-05  1.4331e-08  3.0265e-08  0:07:23 1378
   623  6.1114e-05  1.4289e-08  3.0186e-08  0:05:54 1377
   624  6.0995e-05  1.4248e-08  3.0105e-08  0:04:43 1376
   625  6.0880e-05  1.4210e-08  3.0029e-08  0:03:46 1375
   626  6.0780e-05  1.4180e-08  2.9964e-08  0:07:36 1374
   627  6.0687e-05  1.4153e-08  2.9901e-08  0:06:04 1373

  iter  continuity  x-velocity  y-velocity     time/iter
   628  6.0591e-05  1.4129e-08  2.9842e-08  0:04:51 1372
   629  6.0499e-05  1.4108e-08  2.9787e-08  0:03:53 1371
   630  6.0401e-05  1.4089e-08  2.9728e-08  0:07:40 1370
   631  6.0284e-05  1.4069e-08  2.9665e-08  0:06:08 1369
   632  6.0162e-05  1.4048e-08  2.9605e-08  0:04:54 1368
   633  6.0058e-05  1.4028e-08  2.9553e-08  0:03:55 1367
   634  5.9953e-05  1.4006e-08  2.9504e-08  0:03:08 1366
   635  5.9851e-05  1.3984e-08  2.9456e-08  0:07:03 1365
   636  5.9746e-05  1.3960e-08  2.9406e-08  0:05:38 1364
   637  5.9642e-05  1.3936e-08  2.9355e-08  0:04:30 1363
   638  5.9540e-05  1.3909e-08  2.9303e-08  0:03:36 1362

  iter  continuity  x-velocity  y-velocity     time/iter
   639  5.9417e-05  1.3881e-08  2.9246e-08  0:07:25 1361
   640  5.9272e-05  1.3848e-08  2.9183e-08  0:05:56 1360
   641  5.9117e-05  1.3812e-08  2.9116e-08  0:04:44 1359
   642  5.8958e-05  1.3773e-08  2.9045e-08  0:03:47 1358
   643  5.8797e-05  1.3734e-08  2.8970e-08  0:07:33 1357
   644  5.8616e-05  1.3694e-08  2.8889e-08  0:06:02 1356
   645  5.8430e-05  1.3652e-08  2.8807e-08  0:04:50 1355
   646  5.8232e-05  1.3609e-08  2.8727e-08  0:03:52 1354
   647  5.8043e-05  1.3566e-08  2.8644e-08  0:03:05 1353
   648  5.7869e-05  1.3524e-08  2.8556e-08  0:06:58 1352
   649  5.7711e-05  1.3484e-08  2.8476e-08  0:05:34 1351

  iter  continuity  x-velocity  y-velocity     time/iter
   650  5.7591e-05  1.3447e-08  2.8404e-08  0:04:27 1350
   651  5.7478e-05  1.3411e-08  2.8329e-08  0:03:34 1349
   652  5.7381e-05  1.3377e-08  2.8261e-08  0:07:20 1348
   653  5.7295e-05  1.3352e-08  2.8205e-08  0:05:52 1347
   654  5.7209e-05  1.3335e-08  2.8166e-08  0:04:41 1346
   655  5.7131e-05  1.3321e-08  2.8127e-08  0:03:45 1345
   656  5.7025e-05  1.3305e-08  2.8077e-08  0:07:29 1344
   657  5.6908e-05  1.3284e-08  2.8013e-08  0:05:59 1343
   658  5.6792e-05  1.3258e-08  2.7939e-08  0:04:47 1342
   659  5.6664e-05  1.3226e-08  2.7859e-08  0:03:49 1341
   660  5.6518e-05  1.3193e-08  2.7774e-08  0:07:31 1340

  iter  continuity  x-velocity  y-velocity     time/iter
   661  5.6359e-05  1.3157e-08  2.7691e-08  0:06:01 1339
   662  5.6193e-05  1.3120e-08  2.7609e-08  0:04:48 1338
   663  5.6022e-05  1.3080e-08  2.7525e-08  0:03:51 1337
   664  5.5843e-05  1.3038e-08  2.7438e-08  0:03:04 1336
   665  5.5672e-05  1.2996e-08  2.7352e-08  0:06:54 1335
   666  5.5514e-05  1.2953e-08  2.7268e-08  0:05:31 1334
   667  5.5377e-05  1.2911e-08  2.7192e-08  0:04:25 1333
   668  5.5264e-05  1.2870e-08  2.7119e-08  0:07:58 1332
   669  5.5159e-05  1.2832e-08  2.7045e-08  0:06:22 1331
   670  5.5075e-05  1.2799e-08  2.6988e-08  0:05:05 1330
   671  5.4998e-05  1.2769e-08  2.6935e-08  0:04:04 1329

  iter  continuity  x-velocity  y-velocity     time/iter
   672  5.4923e-05  1.2741e-08  2.6882e-08  0:07:41 1328
   673  5.4828e-05  1.2712e-08  2.6826e-08  0:06:08 1327
   674  5.4711e-05  1.2686e-08  2.6765e-08  0:04:54 1326
   675  5.4595e-05  1.2663e-08  2.6700e-08  0:08:20 1325
   676  5.4486e-05  1.2641e-08  2.6637e-08  0:06:40 1324
   677  5.4396e-05  1.2621e-08  2.6589e-08  0:09:44 1323
   678  5.4324e-05  1.2604e-08  2.6545e-08  0:07:47 1322
   679  5.4245e-05  1.2587e-08  2.6502e-08  0:10:38 1321
   680  5.4158e-05  1.2569e-08  2.6467e-08  0:08:30 1320
   681  5.4068e-05  1.2549e-08  2.6428e-08  0:06:47 1319
   682  5.3966e-05  1.2526e-08  2.6381e-08  0:09:49 1318

  iter  continuity  x-velocity  y-velocity     time/iter
   683  5.3846e-05  1.2498e-08  2.6328e-08  0:07:51 1317
   684  5.3720e-05  1.2466e-08  2.6270e-08  0:06:17 1316
   685  5.3587e-05  1.2432e-08  2.6209e-08  0:09:24 1315
   686  5.3438e-05  1.2397e-08  2.6142e-08  0:07:31 1314
   687  5.3271e-05  1.2360e-08  2.6071e-08  0:06:00 1313
   688  5.3108e-05  1.2322e-08  2.6000e-08  0:04:48 1312
   689  5.2958e-05  1.2282e-08  2.5926e-08  0:08:13 1311
   690  5.2832e-05  1.2245e-08  2.5851e-08  0:06:34 1310
   691  5.2727e-05  1.2210e-08  2.5788e-08  0:05:15 1309
   692  5.2639e-05  1.2175e-08  2.5723e-08  0:04:12 1308
   693  5.2550e-05  1.2142e-08  2.5653e-08  0:07:43 1307

  iter  continuity  x-velocity  y-velocity     time/iter
   694  5.2494e-05  1.2111e-08  2.5591e-08  0:06:10 1306
   695  5.2433e-05  1.2096e-08  2.5549e-08  0:04:56 1305
   696  5.2359e-05  1.2086e-08  2.5516e-08  0:03:56 1304
   697  5.2292e-05  1.2078e-08  2.5482e-08  0:07:29 1303
   698  5.2211e-05  1.2067e-08  2.5442e-08  0:05:59 1302
   699  5.2129e-05  1.2051e-08  2.5388e-08  0:04:47 1301
   700  5.2021e-05  1.2030e-08  2.5323e-08  0:03:50 1300
   701  5.1880e-05  1.2004e-08  2.5248e-08  0:03:04 1299
   702  5.1718e-05  1.1974e-08  2.5171e-08  0:06:46 1298
   703  5.1543e-05  1.1941e-08  2.5088e-08  0:05:25 1297
   704  5.1366e-05  1.1903e-08  2.5002e-08  0:04:20 1296

  iter  continuity  x-velocity  y-velocity     time/iter
   705  5.1180e-05  1.1862e-08  2.4912e-08  0:03:28 1295
   706  5.0989e-05  1.1820e-08  2.4823e-08  0:07:05 1294
   707  5.0815e-05  1.1776e-08  2.4734e-08  0:05:40 1293
   708  5.0650e-05  1.1732e-08  2.4650e-08  0:04:31 1292
   709  5.0509e-05  1.1689e-08  2.4575e-08  0:03:37 1291
   710  5.0398e-05  1.1648e-08  2.4501e-08  0:07:11 1290
   711  5.0305e-05  1.1613e-08  2.4428e-08  0:05:45 1289
   712  5.0229e-05  1.1583e-08  2.4377e-08  0:04:36 1288
   713  5.0159e-05  1.1557e-08  2.4328e-08  0:07:58 1287
   714  5.0087e-05  1.1532e-08  2.4276e-08  0:06:22 1286
   715  4.9986e-05  1.1507e-08  2.4217e-08  0:05:05 1285

  iter  continuity  x-velocity  y-velocity     time/iter
   716  4.9881e-05  1.1484e-08  2.4156e-08  0:04:04 1284
   717  4.9771e-05  1.1465e-08  2.4093e-08  0:03:15 1283
   718  4.9678e-05  1.1450e-08  2.4046e-08  0:06:52 1282
   719  4.9616e-05  1.1437e-08  2.4009e-08  0:05:30 1281
   720  4.9547e-05  1.1425e-08  2.3977e-08  0:04:23 1280
   721  4.9472e-05  1.1411e-08  2.3946e-08  0:03:31 1279
   722  4.9391e-05  1.1395e-08  2.3917e-08  0:07:04 1278
   723  4.9300e-05  1.1374e-08  2.3878e-08  0:05:39 1277
   724  4.9187e-05  1.1349e-08  2.3832e-08  0:04:31 1276
   725  4.9069e-05  1.1320e-08  2.3781e-08  0:03:37 1275
   726  4.8945e-05  1.1287e-08  2.3726e-08  0:07:08 1274

  iter  continuity  x-velocity  y-velocity     time/iter
   727  4.8805e-05  1.1255e-08  2.3664e-08  0:05:42 1273
   728  4.8646e-05  1.1222e-08  2.3597e-08  0:04:33 1272
   729  4.8496e-05  1.1186e-08  2.3533e-08  0:03:39 1271
   730  4.8369e-05  1.1151e-08  2.3467e-08  0:07:09 1270
   731  4.8251e-05  1.1118e-08  2.3404e-08  0:05:43 1269
   732  4.8171e-05  1.1087e-08  2.3354e-08  0:04:34 1268
   733  4.8093e-05  1.1056e-08  2.3300e-08  0:03:39 1267
   734  4.8016e-05  1.1027e-08  2.3239e-08  0:02:55 1266
   735  4.7969e-05  1.0998e-08  2.3187e-08  0:06:33 1265
   736  4.7917e-05  1.0988e-08  2.3154e-08  0:05:14 1264
   737  4.7845e-05  1.0980e-08  2.3126e-08  0:04:11 1263

  iter  continuity  x-velocity  y-velocity     time/iter
   738  4.7774e-05  1.0975e-08  2.3100e-08  0:03:21 1262
   739  4.7695e-05  1.0964e-08  2.3065e-08  0:06:53 1261
   740  4.7598e-05  1.0950e-08  2.3014e-08  0:05:30 1260
   741  4.7490e-05  1.0930e-08  2.2958e-08  0:04:24 1259
   742  4.7363e-05  1.0907e-08  2.2895e-08  0:03:31 1258
   743  4.7228e-05  1.0882e-08  2.2834e-08  0:07:00 1257
   744  4.7081e-05  1.0853e-08  2.2768e-08  0:05:36 1256
   745  4.6932e-05  1.0822e-08  2.2699e-08  0:04:28 1255
   746  4.6788e-05  1.0787e-08  2.2627e-08  0:03:34 1254
   747  4.6656e-05  1.0751e-08  2.2553e-08  0:02:51 1253
   748  4.6524e-05  1.0714e-08  2.2480e-08  0:06:27 1252

  iter  continuity  x-velocity  y-velocity     time/iter
   749  4.6404e-05  1.0676e-08  2.2417e-08  0:05:10 1251
   750  4.6297e-05  1.0638e-08  2.2360e-08  0:04:08 1250
   751  4.6212e-05  1.0607e-08  2.2302e-08  0:03:18 1249
   752  4.6153e-05  1.0580e-08  2.2257e-08  0:06:48 1248
   753  4.6096e-05  1.0556e-08  2.2218e-08  0:05:26 1247
   754  4.6047e-05  1.0536e-08  2.2177e-08  0:04:21 1246
   755  4.5960e-05  1.0515e-08  2.2127e-08  0:03:28 1245
   756  4.5868e-05  1.0492e-08  2.2073e-08  0:06:55 1244
   757  4.5769e-05  1.0475e-08  2.2014e-08  0:05:32 1243
   758  4.5683e-05  1.0461e-08  2.1962e-08  0:04:25 1242
   759  4.5627e-05  1.0450e-08  2.1930e-08  0:03:32 1241

  iter  continuity  x-velocity  y-velocity     time/iter
   760  4.5579e-05  1.0442e-08  2.1901e-08  0:02:50 1240
   761  4.5525e-05  1.0432e-08  2.1875e-08  0:06:23 1239
   762  4.5465e-05  1.0420e-08  2.1854e-08  0:05:06 1238
   763  4.5406e-05  1.0406e-08  2.1829e-08  0:04:05 1237
   764  4.5318e-05  1.0387e-08  2.1796e-08  0:07:23 1236
   765  4.5223e-05  1.0366e-08  2.1757e-08  0:05:54 1235
   766  4.5122e-05  1.0339e-08  2.1714e-08  0:04:43 1234
   767  4.5013e-05  1.0311e-08  2.1668e-08  0:03:46 1233
   768  4.4876e-05  1.0284e-08  2.1611e-08  0:07:07 1232
   769  4.4747e-05  1.0252e-08  2.1554e-08  0:05:42 1231
   770  4.4633e-05  1.0219e-08  2.1499e-08  0:04:33 1230

  iter  continuity  x-velocity  y-velocity     time/iter
   771  4.4534e-05  1.0188e-08  2.1442e-08  0:03:38 1229
   772  4.4454e-05  1.0159e-08  2.1398e-08  0:07:00 1228
   773  4.4391e-05  1.0131e-08  2.1354e-08  0:05:36 1227
   774  4.4327e-05  1.0104e-08  2.1302e-08  0:04:28 1226
   775  4.4277e-05  1.0077e-08  2.1251e-08  0:03:35 1225
   776  4.4248e-05  1.0062e-08  2.1215e-08  0:06:56 1224
   777  4.4192e-05  1.0056e-08  2.1196e-08  0:05:33 1223
   778  4.4123e-05  1.0055e-08  2.1174e-08  0:04:26 1222
   779  4.4060e-05  1.0053e-08  2.1158e-08  0:03:33 1221
   780  4.3977e-05  1.0047e-08  2.1125e-08  0:02:50 1220
   781  4.3897e-05  1.0037e-08  2.1084e-08  0:06:20 1219

  iter  continuity  x-velocity  y-velocity     time/iter
   782  4.3821e-05  1.0023e-08  2.1040e-08  0:05:03 1218
   783  4.3734e-05  1.0007e-08  2.0992e-08  0:04:03 1217
   784  4.3632e-05  9.9870e-09  2.0943e-08  0:03:14 1216
   785  4.3509e-05  9.9628e-09  2.0888e-08  0:06:38 1215
   786  4.3368e-05  9.9339e-09  2.0826e-08  0:05:18 1214
   787  4.3233e-05  9.9023e-09  2.0758e-08  0:04:14 1213
   788  4.3099e-05  9.8682e-09  2.0683e-08  0:03:23 1212
   789  4.2965e-05  9.8321e-09  2.0614e-08  0:06:45 1211
   790  4.2844e-05  9.7945e-09  2.0546e-08  0:05:23 1210
   791  4.2743e-05  9.7599e-09  2.0478e-08  0:04:19 1209
   792  4.2668e-05  9.7298e-09  2.0423e-08  0:03:27 1208

  iter  continuity  x-velocity  y-velocity     time/iter
   793  4.2627e-05  9.7026e-09  2.0380e-08  0:02:45 1207
   794  4.2608e-05  9.6778e-09  2.0344e-08  0:06:13 1206
   795  4.2590e-05  9.6554e-09  2.0316e-08  0:04:58 1205
   796  4.2529e-05  9.6363e-09  2.0283e-08  0:03:58 1204
   797  4.2434e-05  9.6189e-09  2.0241e-08  0:03:11 1203
   798  4.2336e-05  9.6095e-09  2.0195e-08  0:06:33 1202
   799  4.2261e-05  9.6022e-09  2.0152e-08  0:05:14 1201
   800  4.2221e-05  9.6005e-09  2.0130e-08  0:04:11 1200
   801  4.2180e-05  9.5982e-09  2.0107e-08  0:03:21 1199
   802  4.2121e-05  9.5942e-09  2.0085e-08  0:06:40 1198
   803  4.2060e-05  9.5869e-09  2.0071e-08  0:05:20 1197

  iter  continuity  x-velocity  y-velocity     time/iter
   804  4.1995e-05  9.5747e-09  2.0047e-08  0:04:16 1196
   805  4.1913e-05  9.5560e-09  2.0016e-08  0:03:24 1195
   806  4.1827e-05  9.5315e-09  1.9981e-08  0:02:43 1194
   807  4.1733e-05  9.5068e-09  1.9940e-08  0:06:09 1193
   808  4.1630e-05  9.4828e-09  1.9893e-08  0:04:55 1192
   809  4.1505e-05  9.4554e-09  1.9841e-08  0:03:56 1191
   810  4.1379e-05  9.4236e-09  1.9790e-08  0:07:07 1190
   811  4.1281e-05  9.3910e-09  1.9735e-08  0:05:41 1189
   812  4.1197e-05  9.3623e-09  1.9683e-08  0:04:33 1188
   813  4.1139e-05  9.3384e-09  1.9647e-08  0:03:38 1187
   814  4.1091e-05  9.3149e-09  1.9612e-08  0:06:51 1186

  iter  continuity  x-velocity  y-velocity     time/iter
   815  4.1040e-05  9.2923e-09  1.9569e-08  0:05:29 1185
   816  4.0998e-05  9.2683e-09  1.9518e-08  0:04:23 1184
   817  4.0974e-05  9.2520e-09  1.9484e-08  0:03:30 1183
   818  4.0915e-05  9.2481e-09  1.9474e-08  0:06:44 1182
   819  4.0853e-05  9.2490e-09  1.9465e-08  0:05:23 1181
   820  4.0810e-05  9.2522e-09  1.9451e-08  0:04:18 1180
   821  4.0745e-05  9.2513e-09  1.9426e-08  0:03:26 1179
   822  4.0686e-05  9.2469e-09  1.9391e-08  0:06:41 1178
   823  4.0628e-05  9.2373e-09  1.9349e-08  0:05:20 1177
   824  4.0556e-05  9.2239e-09  1.9305e-08  0:04:16 1176
   825  4.0461e-05  9.2055e-09  1.9258e-08  0:03:25 1175

  iter  continuity  x-velocity  y-velocity     time/iter
   826  4.0350e-05  9.1819e-09  1.9204e-08  0:02:44 1174
   827  4.0228e-05  9.1537e-09  1.9143e-08  0:06:05 1173
   828  4.0117e-05  9.1226e-09  1.9076e-08  0:04:52 1172
   829  3.9993e-05  9.0888e-09  1.9006e-08  0:03:53 1171
   830  3.9878e-05  9.0534e-09  1.8944e-08  0:03:07 1170
   831  3.9763e-05  9.0162e-09  1.8880e-08  0:06:23 1169
   832  3.9653e-05  8.9853e-09  1.8819e-08  0:05:06 1168
   833  3.9559e-05  8.9568e-09  1.8779e-08  0:04:05 1167
   834  3.9476e-05  8.9318e-09  1.8739e-08  0:03:16 1166
   835  3.9407e-05  8.9097e-09  1.8697e-08  0:06:29 1165
   836  3.9370e-05  8.8877e-09  1.8660e-08  0:05:11 1164

  iter  continuity  x-velocity  y-velocity     time/iter
   837  3.9347e-05  8.8666e-09  1.8631e-08  0:04:09 1163
   838  3.9312e-05  8.8477e-09  1.8600e-08  0:03:19 1162
   839  3.9252e-05  8.8346e-09  1.8568e-08  0:06:31 1161
   840  3.9201e-05  8.8285e-09  1.8533e-08  0:05:13 1160
   841  3.9156e-05  8.8248e-09  1.8504e-08  0:04:10 1159
   842  3.9111e-05  8.8276e-09  1.8493e-08  0:03:20 1158
   843  3.9095e-05  8.8329e-09  1.8486e-08  0:02:40 1157
   844  3.9062e-05  8.8364e-09  1.8476e-08  0:05:59 1156
   845  3.9010e-05  8.8365e-09  1.8464e-08  0:04:47 1155
   846  3.8943e-05  8.8295e-09  1.8441e-08  0:03:49 1154
   847  3.8864e-05  8.8155e-09  1.8411e-08  0:03:03 1153

  iter  continuity  x-velocity  y-velocity     time/iter
   848  3.8782e-05  8.7958e-09  1.8379e-08  0:06:17 1152
   849  3.8688e-05  8.7750e-09  1.8341e-08  0:05:01 1151
   850  3.8592e-05  8.7534e-09  1.8298e-08  0:04:01 1150
   851  3.8483e-05  8.7285e-09  1.8252e-08  0:03:12 1149
   852  3.8378e-05  8.6997e-09  1.8209e-08  0:06:23 1148
   853  3.8312e-05  8.6715e-09  1.8158e-08  0:05:06 1147
   854  3.8259e-05  8.6465e-09  1.8124e-08  0:04:05 1146
   855  3.8231e-05  8.6272e-09  1.8100e-08  0:03:16 1145
   856  3.8201e-05  8.6076e-09  1.8072e-08  0:02:37 1144
   857  3.8155e-05  8.5872e-09  1.8036e-08  0:05:54 1143
   858  3.8155e-05  8.5660e-09  1.7993e-08  0:04:43 1142

  iter  continuity  x-velocity  y-velocity     time/iter
   859  3.8161e-05  8.5612e-09  1.7987e-08  0:03:46 1141
   860  3.8121e-05  8.5594e-09  1.7981e-08  0:06:49 1140
   861  3.8071e-05  8.5603e-09  1.7963e-08  0:05:27 1139
   862  3.7967e-05  8.5632e-09  1.7921e-08  0:04:21 1138
   863  3.7890e-05  8.5605e-09  1.7888e-08  0:03:29 1137
   864  3.7818e-05  8.5546e-09  1.7858e-08  0:06:34 1136
   865  3.7723e-05  8.5443e-09  1.7825e-08  0:05:15 1135
   866  3.7617e-05  8.5320e-09  1.7789e-08  0:04:12 1134
   867  3.7491e-05  8.5127e-09  1.7744e-08  0:03:21 1133
   868  3.7358e-05  8.4882e-09  1.7690e-08  0:06:27 1132
   869  3.7217e-05  8.4597e-09  1.7629e-08  0:05:09 1131

  iter  continuity  x-velocity  y-velocity     time/iter
   870  3.7098e-05  8.4271e-09  1.7561e-08  0:04:07 1130
   871  3.6990e-05  8.3927e-09  1.7498e-08  0:03:18 1129
   872  3.6929e-05  8.3569e-09  1.7451e-08  0:02:38 1128
   873  3.6880e-05  8.3226e-09  1.7401e-08  0:05:52 1127
   874  3.6823e-05  8.2960e-09  1.7348e-08  0:04:41 1126
   875  3.6787e-05  8.2733e-09  1.7324e-08  0:03:45 1125
   876  3.6747e-05  8.2550e-09  1.7307e-08  0:03:00 1124
   877  3.6709e-05  8.2393e-09  1.7286e-08  0:06:08 1123
   878  3.6682e-05  8.2268e-09  1.7263e-08  0:04:54 1122
   879  3.6602e-05  8.2137e-09  1.7232e-08  0:03:55 1121
   880  3.6497e-05  8.2072e-09  1.7190e-08  0:03:08 1120

  iter  continuity  x-velocity  y-velocity     time/iter
   881  3.6416e-05  8.2057e-09  1.7148e-08  0:02:30 1119
   882  3.6350e-05  8.2087e-09  1.7120e-08  0:05:44 1118
   883  3.6322e-05  8.2125e-09  1.7108e-08  0:04:35 1117
   884  3.6289e-05  8.2149e-09  1.7095e-08  0:03:40 1116
   885  3.6212e-05  8.2139e-09  1.7081e-08  0:02:56 1115
   886  3.6138e-05  8.2060e-09  1.7066e-08  0:06:03 1114
   887  3.6057e-05  8.1892e-09  1.7046e-08  0:04:50 1113
   888  3.5975e-05  8.1665e-09  1.7021e-08  0:03:52 1112
   889  3.5887e-05  8.1430e-09  1.6993e-08  0:03:05 1111
   890  3.5789e-05  8.1198e-09  1.6960e-08  0:06:10 1110
   891  3.5683e-05  8.0949e-09  1.6917e-08  0:04:56 1109

  iter  continuity  x-velocity  y-velocity     time/iter
   892  3.5580e-05  8.0666e-09  1.6877e-08  0:03:56 1108
   893  3.5522e-05  8.0370e-09  1.6835e-08  0:03:09 1107
   894  3.5467e-05  8.0144e-09  1.6802e-08  0:02:31 1106
   895  3.5444e-05  7.9946e-09  1.6781e-08  0:05:42 1105
   896  3.5406e-05  7.9740e-09  1.6751e-08  0:04:33 1104
   897  3.5368e-05  7.9554e-09  1.6714e-08  0:03:38 1103
   898  3.5352e-05  7.9375e-09  1.6679e-08  0:02:55 1102
   899  3.5347e-05  7.9383e-09  1.6673e-08  0:06:00 1101
   900  3.5306e-05  7.9418e-09  1.6675e-08  0:04:47 1100
   901  3.5279e-05  7.9492e-09  1.6670e-08  0:03:50 1099
   902  3.5223e-05  7.9534e-09  1.6650e-08  0:03:04 1098

  iter  continuity  x-velocity  y-velocity     time/iter
   903  3.5170e-05  7.9521e-09  1.6619e-08  0:06:06 1097
   904  3.5101e-05  7.9459e-09  1.6588e-08  0:04:53 1096
   905  3.5001e-05  7.9337e-09  1.6551e-08  0:03:54 1095
   906  3.4887e-05  7.9170e-09  1.6512e-08  0:03:07 1094
   907  3.4771e-05  7.8942e-09  1.6466e-08  0:06:08 1093
   908  3.4656e-05  7.8671e-09  1.6414e-08  0:04:54 1092
   909  3.4521e-05  7.8378e-09  1.6356e-08  0:03:55 1091
   910  3.4388e-05  7.8057e-09  1.6297e-08  0:03:08 1090
   911  3.4260e-05  7.7716e-09  1.6243e-08  0:06:08 1089
   912  3.4162e-05  7.7363e-09  1.6198e-08  0:04:54 1088
   913  3.4077e-05  7.7035e-09  1.6150e-08  0:03:55 1087

  iter  continuity  x-velocity  y-velocity     time/iter
   914  3.4023e-05  7.6808e-09  1.6107e-08  0:03:08 1086
   915  3.4001e-05  7.6633e-09  1.6090e-08  0:06:07 1085
   916  3.3985e-05  7.6491e-09  1.6073e-08  0:04:53 1084
   917  3.3973e-05  7.6383e-09  1.6056e-08  0:03:55 1083
   918  3.3915e-05  7.6267e-09  1.6028e-08  0:03:07 1082
   919  3.3833e-05  7.6143e-09  1.5998e-08  0:06:06 1081
   920  3.3753e-05  7.6087e-09  1.5962e-08  0:04:53 1080
   921  3.3693e-05  7.6051e-09  1.5930e-08  0:03:54 1079
   922  3.3667e-05  7.6054e-09  1.5923e-08  0:03:07 1078
   923  3.3648e-05  7.6073e-09  1.5920e-08  0:06:05 1077
   924  3.3629e-05  7.6089e-09  1.5915e-08  0:04:52 1076

  iter  continuity  x-velocity  y-velocity     time/iter
   925  3.3590e-05  7.6077e-09  1.5908e-08  0:03:53 1075
   926  3.3551e-05  7.6020e-09  1.5898e-08  0:03:06 1074
   927  3.3488e-05  7.5889e-09  1.5880e-08  0:02:29 1073
   928  3.3417e-05  7.5708e-09  1.5855e-08  0:05:33 1072
   929  3.3337e-05  7.5493e-09  1.5825e-08  0:04:26 1071
   930  3.3245e-05  7.5298e-09  1.5789e-08  0:03:33 1070
   931  3.3136e-05  7.5067e-09  1.5743e-08  0:02:50 1069
   932  3.3043e-05  7.4804e-09  1.5700e-08  0:05:50 1068
   933  3.2980e-05  7.4527e-09  1.5654e-08  0:04:39 1067
   934  3.2922e-05  7.4310e-09  1.5624e-08  0:03:43 1066
   935  3.2891e-05  7.4108e-09  1.5599e-08  0:02:59 1065

  iter  continuity  x-velocity  y-velocity     time/iter
   936  3.2844e-05  7.3898e-09  1.5565e-08  0:05:55 1064
   937  3.2785e-05  7.3703e-09  1.5523e-08  0:04:44 1063
   938  3.2745e-05  7.3534e-09  1.5478e-08  0:03:47 1062
   939  3.2726e-05  7.3493e-09  1.5456e-08  0:03:01 1061
   940  3.2672e-05  7.3472e-09  1.5441e-08  0:02:25 1060
   941  3.2613e-05  7.3488e-09  1.5419e-08  0:05:28 1059
   942  3.2555e-05  7.3472e-09  1.5397e-08  0:04:22 1058
   943  3.2475e-05  7.3406e-09  1.5361e-08  0:03:29 1057
   944  3.2401e-05  7.3289e-09  1.5319e-08  0:02:47 1056
   945  3.2298e-05  7.3119e-09  1.5271e-08  0:05:45 1055
   946  3.2179e-05  7.2911e-09  1.5220e-08  0:04:36 1054

  iter  continuity  x-velocity  y-velocity     time/iter
   947  3.2047e-05  7.2668e-09  1.5167e-08  0:03:40 1053
   948  3.1917e-05  7.2385e-09  1.5110e-08  0:02:56 1052
   949  3.1773e-05  7.2079e-09  1.5051e-08  0:05:51 1051
   950  3.1654e-05  7.1753e-09  1.4989e-08  0:04:40 1050
   951  3.1544e-05  7.1404e-09  1.4934e-08  0:03:44 1049
   952  3.1469e-05  7.1051e-09  1.4886e-08  0:02:59 1048
   953  3.1410e-05  7.0741e-09  1.4839e-08  0:02:23 1047
   954  3.1377e-05  7.0521e-09  1.4803e-08  0:05:24 1046
   955  3.1365e-05  7.0349e-09  1.4778e-08  0:04:19 1045
   956  3.1321e-05  7.0188e-09  1.4748e-08  0:03:27 1044
   957  3.1243e-05  7.0036e-09  1.4707e-08  0:06:14 1043

  iter  continuity  x-velocity  y-velocity     time/iter
   958  3.1149e-05  6.9870e-09  1.4665e-08  0:04:59 1042
   959  3.1068e-05  6.9767e-09  1.4620e-08  0:07:27 1041
   960  3.1023e-05  6.9705e-09  1.4591e-08  0:05:57 1040
   961  3.1000e-05  6.9689e-09  1.4573e-08  0:08:13 1039
   962  3.0987e-05  6.9688e-09  1.4562e-08  0:06:34 1038
   963  3.0960e-05  6.9671e-09  1.4552e-08  0:05:15 1037
   964  3.0923e-05  6.9629e-09  1.4535e-08  0:07:39 1036
   965  3.0872e-05  6.9543e-09  1.4515e-08  0:06:07 1035
   966  3.0801e-05  6.9394e-09  1.4493e-08  0:08:20 1034
   967  3.0725e-05  6.9197e-09  1.4466e-08  0:06:40 1033
   968  3.0644e-05  6.8981e-09  1.4436e-08  0:08:46 1032

  iter  continuity  x-velocity  y-velocity     time/iter
   969  3.0556e-05  6.8769e-09  1.4398e-08  0:07:00 1031
   970  3.0448e-05  6.8540e-09  1.4348e-08  0:09:02 1030
   971  3.0359e-05  6.8270e-09  1.4302e-08  0:07:13 1029
   972  3.0294e-05  6.7991e-09  1.4256e-08  0:05:46 1028
   973  3.0257e-05  6.7776e-09  1.4228e-08  0:08:02 1027
   974  3.0223e-05  6.7567e-09  1.4200e-08  0:06:25 1026
   975  3.0171e-05  6.7352e-09  1.4163e-08  0:08:33 1025
   976  3.0103e-05  6.7157e-09  1.4120e-08  0:06:50 1024
   977  3.0056e-05  6.6986e-09  1.4070e-08  0:08:52 1023
   978  3.0035e-05  6.6940e-09  1.4045e-08  0:07:05 1022
   979  2.9983e-05  6.6918e-09  1.4029e-08  0:09:04 1021

  iter  continuity  x-velocity  y-velocity     time/iter
   980  2.9913e-05  6.6935e-09  1.4006e-08  0:07:15 1020
   981  2.9856e-05  6.6942e-09  1.3992e-08  0:05:48 1019
   982  2.9787e-05  6.6917e-09  1.3970e-08  0:08:01 1018
   983  2.9722e-05  6.6847e-09  1.3939e-08  0:06:25 1017
   984  2.9652e-05  6.6731e-09  1.3904e-08  0:08:31 1016
   985  2.9567e-05  6.6581e-09  1.3867e-08  0:06:48 1015
   986  2.9470e-05  6.6399e-09  1.3826e-08  0:08:49 1014
   987  2.9367e-05  6.6178e-09  1.3780e-08  0:07:03 1013
   988  2.9263e-05  6.5935e-09  1.3727e-08  0:09:00 1012
   989  2.9173e-05  6.5659e-09  1.3670e-08  0:07:12 1011
   990  2.9089e-05  6.5359e-09  1.3622e-08  0:05:45 1010

  iter  continuity  x-velocity  y-velocity     time/iter
   991  2.9015e-05  6.5055e-09  1.3576e-08  0:07:58 1009
   992  2.8964e-05  6.4822e-09  1.3534e-08  0:06:22 1008
   993  2.8938e-05  6.4631e-09  1.3510e-08  0:08:26 1007
   994  2.8903e-05  6.4447e-09  1.3482e-08  0:06:45 1006
   995  2.8833e-05  6.4263e-09  1.3445e-08  0:08:44 1005
   996  2.8742e-05  6.4066e-09  1.3405e-08  0:06:59 1004
   997  2.8636e-05  6.3872e-09  1.3365e-08  0:08:56 1003
   998  2.8550e-05  6.3751e-09  1.3327e-08  0:07:08 1002
   999  2.8510e-05  6.3679e-09  1.3313e-08  0:05:42 1001
  1000  2.8500e-05  6.3642e-09  1.3311e-08  0:07:53 1000
  1001  2.8509e-05  6.3671e-09  1.3308e-08  0:06:18  999

  iter  continuity  x-velocity  y-velocity     time/iter
  1002  2.8502e-05  6.3721e-09  1.3305e-08  0:08:22  998
  1003  2.8480e-05  6.3735e-09  1.3290e-08  0:06:41  997
  1004  2.8424e-05  6.3681e-09  1.3271e-08  0:08:40  996
  1005  2.8352e-05  6.3559e-09  1.3250e-08  0:06:55  995
  1006  2.8297e-05  6.3402e-09  1.3225e-08  0:08:51  994
  1007  2.8241e-05  6.3225e-09  1.3192e-08  0:07:04  993
  1008  2.8170e-05  6.3045e-09  1.3153e-08  0:08:57  992
  1009  2.8095e-05  6.2832e-09  1.3110e-08  0:07:10  991
  1010  2.8052e-05  6.2578e-09  1.3074e-08  0:09:01  990
  1011  2.8003e-05  6.2366e-09  1.3042e-08  0:07:13  989
  1012  2.7992e-05  6.2194e-09  1.3027e-08  0:09:03  988

  iter  continuity  x-velocity  y-velocity     time/iter
  1013  2.7970e-05  6.2036e-09  1.3006e-08  0:07:14  987
  1014  2.7937e-05  6.1880e-09  1.2981e-08  0:05:47  986
  1015  2.7885e-05  6.1727e-09  1.2953e-08  0:07:54  985
  1016  2.7839e-05  6.1574e-09  1.2919e-08  0:06:19  984
  1017  2.7807e-05  6.1514e-09  1.2885e-08  0:08:20  983
  1018  2.7761e-05  6.1466e-09  1.2861e-08  0:06:39  982
  1019  2.7689e-05  6.1405e-09  1.2842e-08  0:08:35  981
  1020  2.7608e-05  6.1415e-09  1.2829e-08  0:06:52  980
  1021  2.7572e-05  6.1446e-09  1.2818e-08  0:08:45  979
  1022  2.7558e-05  6.1460e-09  1.2809e-08  0:06:59  978
  1023  2.7526e-05  6.1427e-09  1.2793e-08  0:08:51  977

  iter  continuity  x-velocity  y-velocity     time/iter
  1024  2.7493e-05  6.1371e-09  1.2776e-08  0:07:04  976
  1025  2.7462e-05  6.1272e-09  1.2752e-08  0:05:39  975
  1026  2.7420e-05  6.1150e-09  1.2724e-08  0:07:46  974
  1027  2.7382e-05  6.0993e-09  1.2688e-08  0:06:12  973
  1028  2.7350e-05  6.0794e-09  1.2651e-08  0:08:12  972
  1029  2.7334e-05  6.0563e-09  1.2623e-08  0:06:33  971
  1030  2.7323e-05  6.0351e-09  1.2589e-08  0:08:28  970
  1031  2.7324e-05  6.0221e-09  1.2577e-08  0:06:46  969
  1032  2.7342e-05  6.0118e-09  1.2567e-08  0:08:38  968
  1033  2.7342e-05  6.0017e-09  1.2556e-08  0:06:54  967
  1034  2.7306e-05  5.9910e-09  1.2535e-08  0:05:31  966

  iter  continuity  x-velocity  y-velocity     time/iter
  1035  2.7243e-05  5.9786e-09  1.2515e-08  0:07:37  965
  1036  2.7163e-05  5.9635e-09  1.2487e-08  0:06:06  964
  1037  2.7089e-05  5.9518e-09  1.2458e-08  0:08:05  963
  1038  2.7047e-05  5.9427e-09  1.2434e-08  0:06:27  962
  1039  2.6978e-05  5.9331e-09  1.2424e-08  0:08:22  961
  1040  2.6916e-05  5.9205e-09  1.2409e-08  0:06:41  960
  1041  2.6843e-05  5.9084e-09  1.2384e-08  0:08:32  959
  1042  2.6746e-05  5.8935e-09  1.2344e-08  0:06:49  958
  1043  2.6631e-05  5.8788e-09  1.2304e-08  0:08:39  957
  1044  2.6532e-05  5.8678e-09  1.2271e-08  0:06:54  956
  1045  2.6453e-05  5.8552e-09  1.2236e-08  0:08:42  955

  iter  continuity  x-velocity  y-velocity     time/iter
  1046  2.6420e-05  5.8461e-09  1.2210e-08  0:06:57  954
  1047  2.6400e-05  5.8371e-09  1.2190e-08  0:08:44  953
  1048  2.6402e-05  5.8254e-09  1.2176e-08  0:06:59  952
  1049  2.6413e-05  5.8114e-09  1.2161e-08  0:05:35  951
  1050  2.6461e-05  5.8053e-09  1.2162e-08  0:07:37  950
  1051  2.6499e-05  5.7990e-09  1.2160e-08  0:06:06  949
  1052  2.6493e-05  5.7917e-09  1.2142e-08  0:08:02  948
  1053  2.6450e-05  5.7823e-09  1.2116e-08  0:09:34  947
  1054  2.6373e-05  5.7708e-09  1.2084e-08  0:07:39  946
  1055  2.6305e-05  5.7557e-09  1.2045e-08  0:06:07  945
  1056  2.6221e-05  5.7417e-09  1.2006e-08  0:08:02  944

  iter  continuity  x-velocity  y-velocity     time/iter
  1057  2.6170e-05  5.7311e-09  1.1970e-08  0:06:25  943
  1058  2.6074e-05  5.7184e-09  1.1932e-08  0:08:16  942
  1059  2.5965e-05  5.7031e-09  1.1909e-08  0:06:37  941
  1060  2.5870e-05  5.6857e-09  1.1883e-08  0:08:25  940
  1061  2.5772e-05  5.6720e-09  1.1847e-08  0:06:43  939
  1062  2.5652e-05  5.6661e-09  1.1820e-08  0:08:30  938
  1063  2.5559e-05  5.6598e-09  1.1796e-08  0:06:48  937
  1064  2.5514e-05  5.6535e-09  1.1776e-08  0:05:26  936
  1065  2.5458e-05  5.6462e-09  1.1748e-08  0:07:27  935
  1066  2.5420e-05  5.6352e-09  1.1711e-08  0:05:57  934
  1067  2.5423e-05  5.6191e-09  1.1684e-08  0:07:52  933

  iter  continuity  x-velocity  y-velocity     time/iter
  1068  2.5430e-05  5.5997e-09  1.1661e-08  0:06:17  932
  1069  2.5458e-05  5.5870e-09  1.1651e-08  0:08:08  931
  1070  2.5497e-05  5.5778e-09  1.1651e-08  0:06:30  930
  1071  2.5508e-05  5.5687e-09  1.1641e-08  0:08:17  929
  1072  2.5480e-05  5.5586e-09  1.1623e-08  0:06:37  928
  1073  2.5430e-05  5.5465e-09  1.1594e-08  0:05:18  927
  1074  2.5356e-05  5.5316e-09  1.1566e-08  0:07:19  926
  1075  2.5317e-05  5.5228e-09  1.1540e-08  0:05:51  925
  1076  2.5281e-05  5.5184e-09  1.1539e-08  0:07:45  924
  1077  2.5242e-05  5.5120e-09  1.1534e-08  0:06:12  923
  1078  2.5165e-05  5.5028e-09  1.1517e-08  0:08:01  922

  iter  continuity  x-velocity  y-velocity     time/iter
  1079  2.5067e-05  5.4939e-09  1.1482e-08  0:06:25  921
  1080  2.4942e-05  5.4874e-09  1.1433e-08  0:08:11  920
  1081  2.4845e-05  5.4805e-09  1.1395e-08  0:06:33  919
  1082  2.4794e-05  5.4727e-09  1.1370e-08  0:05:14  918
  1083  2.4774e-05  5.4654e-09  1.1356e-08  0:07:14  917
  1084  2.4750e-05  5.4594e-09  1.1339e-08  0:05:47  916
  1085  2.4760e-05  5.4501e-09  1.1323e-08  0:07:40  915
  1086  2.4790e-05  5.4375e-09  1.1313e-08  0:06:08  914
  1087  2.4835e-05  5.4319e-09  1.1317e-08  0:07:57  913
  1088  2.4877e-05  5.4252e-09  1.1317e-08  0:06:21  912
  1089  2.4887e-05  5.4178e-09  1.1304e-08  0:08:07  911

  iter  continuity  x-velocity  y-velocity     time/iter
  1090  2.4859e-05  5.4073e-09  1.1282e-08  0:06:29  910
  1091  2.4789e-05  5.3970e-09  1.1254e-08  0:05:11  909
  1092  2.4701e-05  5.3830e-09  1.1217e-08  0:07:10  908
  1093  2.4588e-05  5.3661e-09  1.1177e-08  0:05:44  907
  1094  2.4477e-05  5.3516e-09  1.1136e-08  0:07:36  906
  1095  2.4396e-05  5.3349e-09  1.1093e-08  0:06:04  905
  1096  2.4270e-05  5.3181e-09  1.1062e-08  0:07:52  904
  1097  2.4148e-05  5.2971e-09  1.1033e-08  0:06:17  903
  1098  2.4059e-05  5.2790e-09  1.0999e-08  0:08:02  902
  1099  2.3948e-05  5.2613e-09  1.0958e-08  0:06:25  901
  1100  2.3829e-05  5.2515e-09  1.0920e-08  0:08:08  900

  iter  continuity  x-velocity  y-velocity     time/iter
  1101  2.3755e-05  5.2442e-09  1.0906e-08  0:06:30  899
  1102  2.3723e-05  5.2371e-09  1.0889e-08  0:08:11  898
  1103  2.3689e-05  5.2294e-09  1.0861e-08  0:06:32  897
  1104  2.3701e-05  5.2178e-09  1.0840e-08  0:08:13  896
  1105  2.3720e-05  5.2019e-09  1.0821e-08  0:06:34  895
  1106  2.3754e-05  5.1889e-09  1.0813e-08  0:08:13  894
  1107  2.3788e-05  5.1807e-09  1.0813e-08  0:06:34  893
  1108  2.3803e-05  5.1731e-09  1.0806e-08  0:05:15  892
  1109  2.3797e-05  5.1643e-09  1.0789e-08  0:07:10  891
  1110  2.3755e-05  5.1539e-09  1.0762e-08  0:05:44  890
  1111  2.3697e-05  5.1436e-09  1.0736e-08  0:07:32  889

  iter  continuity  x-velocity  y-velocity     time/iter
  1112  2.3678e-05  5.1395e-09  1.0720e-08  0:06:01  888
  1113  2.3664e-05  5.1370e-09  1.0725e-08  0:07:46  887
  1114  2.3629e-05  5.1317e-09  1.0722e-08  0:06:13  886
  1115  2.3548e-05  5.1226e-09  1.0704e-08  0:07:55  885
  1116  2.3441e-05  5.1158e-09  1.0669e-08  0:06:19  884
  1117  2.3310e-05  5.1105e-09  1.0623e-08  0:05:03  883
  1118  2.3219e-05  5.1028e-09  1.0585e-08  0:06:59  882
  1119  2.3167e-05  5.0960e-09  1.0566e-08  0:05:35  881
  1120  2.3144e-05  5.0897e-09  1.0552e-08  0:07:23  880
  1121  2.3116e-05  5.0835e-09  1.0532e-08  0:05:54  879
  1122  2.3109e-05  5.0744e-09  1.0516e-08  0:07:39  878

  iter  continuity  x-velocity  y-velocity     time/iter
  1123  2.3125e-05  5.0620e-09  1.0501e-08  0:06:07  877
  1124  2.3159e-05  5.0564e-09  1.0501e-08  0:07:48  876
  1125  2.3191e-05  5.0491e-09  1.0501e-08  0:06:14  875
  1126  2.3190e-05  5.0404e-09  1.0490e-08  0:07:54  874
  1127  2.3156e-05  5.0293e-09  1.0469e-08  0:06:19  873
  1128  2.3088e-05  5.0186e-09  1.0441e-08  0:05:02  872
  1129  2.3009e-05  5.0051e-09  1.0407e-08  0:06:56  871
  1130  2.2926e-05  4.9886e-09  1.0373e-08  0:05:32  870
  1131  2.2816e-05  4.9763e-09  1.0336e-08  0:07:19  869
  1132  2.2711e-05  4.9628e-09  1.0290e-08  0:05:51  868
  1133  2.2581e-05  4.9473e-09  1.0264e-08  0:07:34  867

  iter  continuity  x-velocity  y-velocity     time/iter
  1134  2.2468e-05  4.9291e-09  1.0234e-08  0:06:03  866
  1135  2.2366e-05  4.9132e-09  1.0196e-08  0:07:43  865
  1136  2.2260e-05  4.8967e-09  1.0155e-08  0:06:10  864
  1137  2.2147e-05  4.8866e-09  1.0125e-08  0:04:56  863
  1138  2.2106e-05  4.8787e-09  1.0116e-08  0:06:49  862
  1139  2.2086e-05  4.8717e-09  1.0101e-08  0:05:26  861
  1140  2.2068e-05  4.8650e-09  1.0076e-08  0:07:13  860
  1141  2.2094e-05  4.8537e-09  1.0059e-08  0:05:46  859
  1142  2.2123e-05  4.8384e-09  1.0042e-08  0:07:28  858
  1143  2.2162e-05  4.8283e-09  1.0042e-08  0:05:58  857
  1144  2.2196e-05  4.8215e-09  1.0043e-08  0:07:37  856

  iter  continuity  x-velocity  y-velocity     time/iter
  1145  2.2212e-05  4.8145e-09  1.0034e-08  0:06:05  855
  1146  2.2204e-05  4.8063e-09  1.0017e-08  0:04:52  854
  1147  2.2163e-05  4.7977e-09  9.9924e-09  0:06:44  853
  1148  2.2119e-05  4.7894e-09  9.9687e-09  0:08:13  852
  1149  2.2107e-05  4.7870e-09  9.9601e-09  0:06:34  851
  1150  2.2101e-05  4.7846e-09  9.9647e-09  0:08:05  850
  1151  2.2065e-05  4.7795e-09  9.9626e-09  0:06:27  849
  1152  2.1985e-05  4.7713e-09  9.9448e-09  0:07:59  848
  1153  2.1880e-05  4.7649e-09  9.9116e-09  0:06:23  847
  1154  2.1756e-05  4.7603e-09  9.8692e-09  0:05:06  846
  1155  2.1672e-05  4.7532e-09  9.8337e-09  0:06:53  845

  iter  continuity  x-velocity  y-velocity     time/iter
  1156  2.1625e-05  4.7472e-09  9.8158e-09  0:05:30  844
  1157  2.1602e-05  4.7408e-09  9.8022e-09  0:07:13  843
  1158  2.1571e-05  4.7350e-09  9.7836e-09  0:05:46  842
  1159  2.1552e-05  4.7262e-09  9.7656e-09  0:07:24  841
  1160  2.1559e-05  4.7136e-09  9.7511e-09  0:05:55  840
  1161  2.1575e-05  4.7063e-09  9.7435e-09  0:07:32  839
  1162  2.1601e-05  4.6991e-09  9.7424e-09  0:06:01  838
  1163  2.1597e-05  4.6902e-09  9.7323e-09  0:04:48  837
  1164  2.1564e-05  4.6790e-09  9.7140e-09  0:06:38  836
  1165  2.1499e-05  4.6690e-09  9.6892e-09  0:05:18  835
  1166  2.1430e-05  4.6565e-09  9.6569e-09  0:07:01  834

  iter  continuity  x-velocity  y-velocity     time/iter
  1167  2.1352e-05  4.6405e-09  9.6254e-09  0:05:36  833
  1168  2.1254e-05  4.6285e-09  9.5937e-09  0:07:15  832
  1169  2.1149e-05  4.6178e-09  9.5535e-09  0:05:48  831
  1170  2.1029e-05  4.6054e-09  9.5301e-09  0:07:24  830
  1171  2.0930e-05  4.5908e-09  9.5019e-09  0:05:55  829
  1172  2.0834e-05  4.5772e-09  9.4673e-09  0:07:29  828
  1173  2.0734e-05  4.5626e-09  9.4273e-09  0:05:59  827
  1174  2.0638e-05  4.5519e-09  9.4008e-09  0:04:47  826
  1175  2.0600e-05  4.5447e-09  9.3949e-09  0:06:34  825
  1176  2.0591e-05  4.5377e-09  9.3828e-09  0:05:15  824
  1177  2.0576e-05  4.5321e-09  9.3628e-09  0:06:56  823

  iter  continuity  x-velocity  y-velocity     time/iter
  1178  2.0603e-05  4.5228e-09  9.3434e-09  0:05:33  822
[...]
  1749  9.5219e-06  1.9329e-09  3.8330e-09  0:02:17  251

  iter  continuity  x-velocity  y-velocity     time/iter
  1750  9.5310e-06  1.9317e-09  3.8377e-09  0:01:49  250
  1751  9.5288e-06  1.9300e-09  3.8360e-09  0:01:27  249
  1752  9.5029e-06  1.9264e-09  3.8267e-09  0:01:59  248
  1753  9.4730e-06  1.9218e-09  3.8123e-09  0:01:35  247
  1754  9.4381e-06  1.9152e-09  3.7933e-09  0:02:05  246
  1755  9.4000e-06  1.9103e-09  3.7769e-09  0:01:39  245
  1756  9.3647e-06  1.9099e-09  3.7737e-09  0:02:08  244
  1757  9.3230e-06  1.9092e-09  3.7808e-09  0:01:42  243
  1758  9.2749e-06  1.9065e-09  3.7821e-09  0:02:10  242
  1759  9.2441e-06  1.9032e-09  3.7765e-09  0:01:43  241
  1760  9.2195e-06  1.9005e-09  3.7676e-09  0:02:10  240

  iter  continuity  x-velocity  y-velocity     time/iter
  1761  9.1807e-06  1.8979e-09  3.7581e-09  0:01:44  239
  1762  9.1326e-06  1.8978e-09  3.7463e-09  0:01:23  238
  1763  9.0915e-06  1.8986e-09  3.7341e-09  0:01:53  237
  1764  9.0706e-06  1.8977e-09  3.7231e-09  0:02:17  236
  1765  9.0851e-06  1.8942e-09  3.7185e-09  0:01:49  235
  1766  9.1223e-06  1.8886e-09  3.7132e-09  0:02:14  234
  1767  9.1579e-06  1.8817e-09  3.7117e-09  0:01:47  233
  1768  9.2278e-06  1.8796e-09  3.7297e-09  0:02:11  232
  1769  9.2989e-06  1.8778e-09  3.7428e-09  0:01:45  231
  1770  9.3486e-06  1.8762e-09  3.7497e-09  0:01:23  230
  1771  9.3925e-06  1.8730e-09  3.7499e-09  0:01:52  229

  iter  continuity  x-velocity  y-velocity     time/iter
  1772  9.4118e-06  1.8696e-09  3.7469e-09  0:01:29  228
  1773  9.4167e-06  1.8663e-09  3.7433e-09  0:01:57  227
  1774  9.4287e-06  1.8661e-09  3.7410e-09  0:01:33  226
  1775  9.4454e-06  1.8673e-09  3.7460e-09  0:01:59  225
  1776  9.4363e-06  1.8658e-09  3.7542e-09  0:01:35  224
  1777  9.4094e-06  1.8613e-09  3.7542e-09  0:02:00  223
  1778  9.3835e-06  1.8551e-09  3.7456e-09  0:01:36  222
  1779  9.3314e-06  1.8504e-09  3.7380e-09  0:02:00  221
  1780  9.2750e-06  1.8508e-09  3.7275e-09  0:01:36  220
  1781  9.2190e-06  1.8519e-09  3.7152e-09  0:01:16  219
  1782  9.1855e-06  1.8547e-09  3.7121e-09  0:01:44  218

  iter  continuity  x-velocity  y-velocity     time/iter
  1783  9.1428e-06  1.8561e-09  3.7094e-09  0:01:23  217
  1784  9.1119e-06  1.8539e-09  3.7092e-09  0:01:49  216
  1785  9.0931e-06  1.8498e-09  3.7070e-09  0:01:27  215
  1786  9.1057e-06  1.8473e-09  3.7036e-09  0:01:52  214
  1787  9.1264e-06  1.8469e-09  3.7115e-09  0:01:29  213
  1788  9.1387e-06  1.8461e-09  3.7153e-09  0:01:54  212
  1789  9.1281e-06  1.8438e-09  3.7112e-09  0:01:30  211
  1790  9.0979e-06  1.8410e-09  3.7010e-09  0:01:54  210
  1791  9.0708e-06  1.8360e-09  3.6851e-09  0:01:31  209
  1792  9.0356e-06  1.8299e-09  3.6679e-09  0:01:12  208
  1793  9.0083e-06  1.8289e-09  3.6549e-09  0:01:39  207

  iter  continuity  x-velocity  y-velocity     time/iter
  1794  8.9668e-06  1.8288e-09  3.6638e-09  0:01:19  206
  1795  8.9294e-06  1.8273e-09  3.6686e-09  0:01:44  205
  1796  8.8921e-06  1.8237e-09  3.6671e-09  0:01:23  204
  1797  8.8607e-06  1.8217e-09  3.6589e-09  0:01:46  203
  1798  8.8302e-06  1.8183e-09  3.6476e-09  0:01:25  202
  1799  8.7816e-06  1.8168e-09  3.6374e-09  0:01:48  201
  1800  8.7353e-06  1.8172e-09  3.6233e-09  0:01:26  200
  1801  8.6957e-06  1.8168e-09  3.6090e-09  0:01:48  199
  1802  8.6980e-06  1.8138e-09  3.6021e-09  0:01:26  198
  1803  8.7230e-06  1.8085e-09  3.5921e-09  0:01:48  197
  1804  8.7542e-06  1.8010e-09  3.5881e-09  0:01:26  196

  iter  continuity  x-velocity  y-velocity     time/iter
  1805  8.8052e-06  1.7949e-09  3.5931e-09  0:01:47  195
  1806  8.8715e-06  1.7927e-09  3.6052e-09  0:01:25  194
  1807  8.9242e-06  1.7908e-09  3.6114e-09  0:01:08  193
  1808  8.9674e-06  1.7869e-09  3.6100e-09  0:01:32  192
  1809  8.9896e-06  1.7833e-09  3.6028e-09  0:01:14  191
  1810  8.9868e-06  1.7784e-09  3.5942e-09  0:01:37  190
  1811  8.9840e-06  1.7756e-09  3.5827e-09  0:01:55  189
  1812  8.9890e-06  1.7756e-09  3.5743e-09  0:01:31  188
  1813  8.9851e-06  1.7735e-09  3.5745e-09  0:01:13  187
  1814  8.9502e-06  1.7689e-09  3.5691e-09  0:01:35  186
  1815  8.9198e-06  1.7614e-09  3.5559e-09  0:01:16  185

  iter  continuity  x-velocity  y-velocity     time/iter
  1816  8.8702e-06  1.7554e-09  3.5383e-09  0:01:37  184
  1817  8.8043e-06  1.7529e-09  3.5216e-09  0:01:17  183
  1818  8.7410e-06  1.7532e-09  3.4998e-09  0:01:38  182
  1819  8.6959e-06  1.7538e-09  3.4871e-09  0:01:18  181
  1820  8.6431e-06  1.7547e-09  3.4770e-09  0:01:38  180
  1821  8.5869e-06  1.7524e-09  3.4675e-09  0:01:18  179
  1822  8.5656e-06  1.7466e-09  3.4598e-09  0:01:38  178
  1823  8.5480e-06  1.7416e-09  3.4474e-09  0:01:18  177
  1824  8.5663e-06  1.7391e-09  3.4460e-09  0:01:02  176
  1825  8.5807e-06  1.7370e-09  3.4460e-09  0:01:24  175
  1826  8.5718e-06  1.7350e-09  3.4401e-09  0:01:07  174

  iter  continuity  x-velocity  y-velocity     time/iter
  1827  8.5426e-06  1.7313e-09  3.4267e-09  0:01:28  173
  1828  8.5113e-06  1.7264e-09  3.4095e-09  0:01:10  172
  1829  8.4794e-06  1.7193e-09  3.3863e-09  0:01:30  171
  1830  8.4458e-06  1.7155e-09  3.3677e-09  0:01:11  170
  1831  8.4051e-06  1.7144e-09  3.3640e-09  0:01:31  169
  1832  8.3636e-06  1.7126e-09  3.3675e-09  0:01:12  168
  1833  8.3186e-06  1.7088e-09  3.3653e-09  0:01:31  167
  1834  8.2859e-06  1.7057e-09  3.3563e-09  0:01:12  166
  1835  8.2553e-06  1.7021e-09  3.3440e-09  0:01:30  165
  1836  8.2105e-06  1.6989e-09  3.3317e-09  0:01:12  164
  1837  8.1596e-06  1.6983e-09  3.3171e-09  0:00:57  163

  iter  continuity  x-velocity  y-velocity     time/iter
  1838  8.1175e-06  1.6976e-09  3.3037e-09  0:01:18  162
  1839  8.1023e-06  1.6955e-09  3.2930e-09  0:01:02  161
  1840  8.1179e-06  1.6903e-09  3.2848e-09  0:01:21  160
  1841  8.1526e-06  1.6833e-09  3.2771e-09  0:01:05  159
  1842  8.1866e-06  1.6754e-09  3.2738e-09  0:01:23  158
  1843  8.2521e-06  1.6729e-09  3.2884e-09  0:01:06  157
  1844  8.3149e-06  1.6705e-09  3.2979e-09  0:01:24  156
  1845  8.3623e-06  1.6679e-09  3.3009e-09  0:01:06  155
  1846  8.3969e-06  1.6643e-09  3.2989e-09  0:01:24  154
  1847  8.4063e-06  1.6604e-09  3.2948e-09  0:01:06  153
  1848  8.4038e-06  1.6569e-09  3.2880e-09  0:00:53  152

  iter  continuity  x-velocity  y-velocity     time/iter
  1849  8.4145e-06  1.6572e-09  3.2828e-09  0:01:12  151
  1850  8.4278e-06  1.6570e-09  3.2871e-09  0:00:57  150
  1851  8.4112e-06  1.6544e-09  3.2899e-09  0:01:15  149
  1852  8.3817e-06  1.6489e-09  3.2846e-09  0:01:00  148
  1853  8.3496e-06  1.6436e-09  3.2714e-09  0:01:17  147
  1854  8.2926e-06  1.6402e-09  3.2612e-09  0:01:01  146
  1855  8.2374e-06  1.6408e-09  3.2459e-09  0:01:18  145
  1856  8.1877e-06  1.6421e-09  3.2311e-09  0:01:02  144
  1857  8.1407e-06  1.6438e-09  3.2242e-09  0:01:18  143
  1858  8.0839e-06  1.6434e-09  3.2172e-09  0:01:02  142
  1859  8.0517e-06  1.6397e-09  3.2114e-09  0:01:17  141

  iter  continuity  x-velocity  y-velocity     time/iter
  1860  8.0327e-06  1.6341e-09  3.2041e-09  0:01:01  140
  1861  8.0428e-06  1.6313e-09  3.1993e-09  0:01:16  139
  1862  8.0634e-06  1.6299e-09  3.2039e-09  0:01:01  138
  1863  8.0699e-06  1.6294e-09  3.2039e-09  0:01:16  137
  1864  8.0494e-06  1.6266e-09  3.1959e-09  0:01:00  136
  1865  8.0189e-06  1.6236e-09  3.1828e-09  0:00:48  135
  1866  7.9953e-06  1.6181e-09  3.1646e-09  0:01:05  134
  1867  7.9630e-06  1.6127e-09  3.1460e-09  0:00:51  133
  1868  7.9335e-06  1.6122e-09  3.1346e-09  0:01:07  132
  1869  7.8905e-06  1.6118e-09  3.1423e-09  0:00:53  131
  1870  7.8527e-06  1.6096e-09  3.1448e-09  0:01:08  130

  iter  continuity  x-velocity  y-velocity     time/iter
  1871  7.8228e-06  1.6062e-09  3.1410e-09  0:00:54  129
  1872  7.7932e-06  1.6037e-09  3.1324e-09  0:01:09  128
  1873  7.7579e-06  1.6006e-09  3.1222e-09  0:00:55  127
  1874  7.7099e-06  1.5997e-09  3.1127e-09  0:01:08  126
  1875  7.6679e-06  1.5995e-09  3.1013e-09  0:00:54  125
  1876  7.6423e-06  1.5989e-09  3.0908e-09  0:00:43  124
  1877  7.6581e-06  1.5955e-09  3.0861e-09  0:00:59  123
  1878  7.6893e-06  1.5898e-09  3.0776e-09  0:00:47  122
  1879  7.7188e-06  1.5822e-09  3.0757e-09  0:01:01  121
  1880  7.7820e-06  1.5782e-09  3.0869e-09  0:00:49  120
  1881  7.8498e-06  1.5763e-09  3.1004e-09  0:01:02  119

  iter  continuity  x-velocity  y-velocity     time/iter
  1882  7.9016e-06  1.5749e-09  3.1075e-09  0:00:49  118
  1883  7.9453e-06  1.5716e-09  3.1085e-09  0:01:03  117
  1884  7.9653e-06  1.5684e-09  3.1059e-09  0:00:50  116
  1885  7.9652e-06  1.5650e-09  3.1024e-09  0:00:39  115
  1886  7.9730e-06  1.5642e-09  3.0966e-09  0:00:54  114
  1887  7.9894e-06  1.5655e-09  3.0981e-09  0:00:43  113
  1888  7.9850e-06  1.5644e-09  3.1048e-09  0:00:56  112
  1889  7.9551e-06  1.5606e-09  3.1032e-09  0:00:45  111
  1890  7.9293e-06  1.5553e-09  3.0933e-09  0:00:57  110
  1891  7.8802e-06  1.5508e-09  3.0826e-09  0:00:46  109
  1892  7.8236e-06  1.5511e-09  3.0691e-09  0:00:58  108

  iter  continuity  x-velocity  y-velocity     time/iter
  1893  7.7701e-06  1.5527e-09  3.0525e-09  0:00:46  107
  1894  7.7273e-06  1.5546e-09  3.0433e-09  0:00:57  106
  1895  7.6653e-06  1.5554e-09  3.0371e-09  0:00:46  105
  1896  7.6183e-06  1.5524e-09  3.0297e-09  0:00:36  104
  1897  7.5978e-06  1.5461e-09  3.0245e-09  0:00:49  103
  1898  7.5953e-06  1.5419e-09  3.0171e-09  0:00:39  102
  1899  7.6189e-06  1.5407e-09  3.0208e-09  0:00:51  101
  1900  7.6296e-06  1.5396e-09  3.0225e-09  0:00:40  100
  1901  7.6173e-06  1.5375e-09  3.0172e-09  0:00:52   99
  1902  7.5836e-06  1.5344e-09  3.0059e-09  0:00:41   98
  1903  7.5613e-06  1.5297e-09  2.9898e-09  0:00:52   97

  iter  continuity  x-velocity  y-velocity     time/iter
  1904  7.5324e-06  1.5240e-09  2.9705e-09  0:00:41   96
  1905  7.5058e-06  1.5224e-09  2.9560e-09  0:00:52   95
  1906  7.4649e-06  1.5221e-09  2.9586e-09  0:00:41   94
  1907  7.4292e-06  1.5206e-09  2.9624e-09  0:00:51   93
  1908  7.3944e-06  1.5172e-09  2.9614e-09  0:00:40   92
  1909  7.3665e-06  1.5150e-09  2.9544e-09  0:00:50   91
  1910  7.3373e-06  1.5112e-09  2.9463e-09  0:00:40   90
  1911  7.2926e-06  1.5098e-09  2.9392e-09  0:00:31   89
  1912  7.2481e-06  1.5102e-09  2.9282e-09  0:00:42   88
  1913  7.2185e-06  1.5098e-09  2.9171e-09  0:00:34   87
  1914  7.2331e-06  1.5077e-09  2.9141e-09  0:00:44   86

  iter  continuity  x-velocity  y-velocity     time/iter
  1915  7.2577e-06  1.5023e-09  2.9064e-09  0:00:35   85
  1916  7.2923e-06  1.4951e-09  2.9035e-09  0:00:44   84
  1917  7.3441e-06  1.4889e-09  2.9090e-09  0:00:35   83
  1918  7.4139e-06  1.4876e-09  2.9253e-09  0:00:44   82
  1919  7.4729e-06  1.4865e-09  2.9351e-09  0:00:35   81
  1920  7.5172e-06  1.4836e-09  2.9385e-09  0:00:27   80
  1921  7.5457e-06  1.4809e-09  2.9376e-09  0:00:37   79
  1922  7.5460e-06  1.4779e-09  2.9353e-09  0:00:30   78
  1923  7.5488e-06  1.4772e-09  2.9295e-09  0:00:39   77
  1924  7.5664e-06  1.4795e-09  2.9287e-09  0:00:31   76
  1925  7.5733e-06  1.4795e-09  2.9363e-09  0:00:39   75

  iter  continuity  x-velocity  y-velocity     time/iter
  1926  7.5507e-06  1.4773e-09  2.9376e-09  0:00:31   74
  1927  7.5249e-06  1.4728e-09  2.9307e-09  0:00:39   73
  1928  7.4858e-06  1.4681e-09  2.9198e-09  0:00:31   72
  1929  7.4266e-06  1.4674e-09  2.9091e-09  0:00:38   71
  1930  7.3747e-06  1.4694e-09  2.8921e-09  0:00:30   70
  1931  7.3321e-06  1.4716e-09  2.8804e-09  0:00:24   69
  1932  7.2673e-06  1.4731e-09  2.8735e-09  0:00:32   68
  1933  7.2137e-06  1.4708e-09  2.8652e-09  0:00:26   67
  1934  7.1871e-06  1.4652e-09  2.8592e-09  0:00:33   66
  1935  7.1740e-06  1.4598e-09  2.8502e-09  0:00:26   65
  1936  7.1961e-06  1.4575e-09  2.8519e-09  0:00:34   64

  iter  continuity  x-velocity  y-velocity     time/iter
  1937  7.2115e-06  1.4554e-09  2.8553e-09  0:00:26   63
  1938  7.2070e-06  1.4533e-09  2.8530e-09  0:00:33   62
  1939  7.1783e-06  1.4501e-09  2.8427e-09  0:00:26   61
  1940  7.1482e-06  1.4457e-09  2.8287e-09  0:00:21   60
  1941  7.1245e-06  1.4398e-09  2.8093e-09  0:00:28   59
  1942  7.0967e-06  1.4371e-09  2.7948e-09  0:00:22   58
  1943  7.0615e-06  1.4370e-09  2.7916e-09  0:00:29   57
  1944  7.0253e-06  1.4361e-09  2.7967e-09  0:00:23   56
  1945  6.9878e-06  1.4333e-09  2.7974e-09  0:00:29   55
  1946  6.9622e-06  1.4311e-09  2.7927e-09  0:00:23   54
  1947  6.9360e-06  1.4281e-09  2.7859e-09  0:00:28   53

  iter  continuity  x-velocity  y-velocity     time/iter
  1948  6.8979e-06  1.4256e-09  2.7784e-09  0:00:22   52
  1949  6.8550e-06  1.4261e-09  2.7683e-09  0:00:28   51
  1950  6.8261e-06  1.4260e-09  2.7582e-09  0:00:22   50
  1951  6.8329e-06  1.4249e-09  2.7549e-09  0:00:27   49
  1952  6.8517e-06  1.4207e-09  2.7487e-09  0:00:21   48
  1953  6.8916e-06  1.4141e-09  2.7443e-09  0:00:26   47
  1954  6.9343e-06  1.4071e-09  2.7460e-09  0:00:20   46
  1955  7.0051e-06  1.4056e-09  2.7639e-09  0:00:25   45
  1956  7.0700e-06  1.4044e-09  2.7758e-09  0:00:19   44
  1957  7.1157e-06  1.4031e-09  2.7812e-09  0:00:15   43
  1958  7.1507e-06  1.4010e-09  2.7821e-09  0:00:20   42

  iter  continuity  x-velocity  y-velocity     time/iter
  1959  7.1582e-06  1.3992e-09  2.7799e-09  0:00:16   41
  1960  7.1558e-06  1.3980e-09  2.7748e-09  0:00:20   40
  1961  7.1719e-06  1.4007e-09  2.7720e-09  0:00:16   39
  1962  7.1853e-06  1.4020e-09  2.7790e-09  0:00:20   38
  1963  7.1700e-06  1.4007e-09  2.7829e-09  0:00:16   37
  1964  7.1420e-06  1.3970e-09  2.7788e-09  0:00:19   36
  1965  7.1113e-06  1.3924e-09  2.7679e-09  0:00:15   35
  1966  7.0535e-06  1.3904e-09  2.7593e-09  0:00:18   34
  1967  7.0012e-06  1.3922e-09  2.7442e-09  0:00:14   33
  1968  6.9570e-06  1.3949e-09  2.7284e-09  0:00:11   32
  1969  6.8985e-06  1.3967e-09  2.7217e-09  0:00:15   31

  iter  continuity  x-velocity  y-velocity     time/iter
  1970  6.8348e-06  1.3954e-09  2.7127e-09  0:00:11   30
  1971  6.8028e-06  1.3905e-09  2.7051e-09  0:00:15   29
  1972  6.7883e-06  1.3838e-09  2.6973e-09  0:00:11   28
  1973  6.8029e-06  1.3807e-09  2.6950e-09  0:00:14   27
  1974  6.8232e-06  1.3779e-09  2.6997e-09  0:00:11   26
  1975  6.8256e-06  1.3765e-09  2.6997e-09  0:00:13   25
  1976  6.8023e-06  1.3731e-09  2.6916e-09  0:00:10   24
  1977  6.7703e-06  1.3688e-09  2.6788e-09  0:00:12   23
  1978  6.7460e-06  1.3627e-09  2.6609e-09  0:00:10   22
  1979  6.7174e-06  1.3584e-09  2.6456e-09  0:00:07   21
  1980  6.6884e-06  1.3585e-09  2.6377e-09  0:00:10   20

  iter  continuity  x-velocity  y-velocity     time/iter
  1981  6.6513e-06  1.3582e-09  2.6437e-09  0:00:07   19
  1982  6.6144e-06  1.3563e-09  2.6454e-09  0:00:09   18
  1983  6.5915e-06  1.3537e-09  2.6425e-09  0:00:07   17
  1984  6.5661e-06  1.3511e-09  2.6366e-09  0:00:08   16
  1985  6.5312e-06  1.3484e-09  2.6289e-09  0:00:06   15
  1986  6.4917e-06  1.3483e-09  2.6204e-09  0:00:07   14
  1987  6.4629e-06  1.3481e-09  2.6101e-09  0:00:06   13
  1988  6.4627e-06  1.3479e-09  2.6062e-09  0:00:04   12
  1989  6.4813e-06  1.3448e-09  2.6015e-09  0:00:05   11
  1990  6.5191e-06  1.3387e-09  2.5959e-09  0:00:04   10
  1991  6.5554e-06  1.3315e-09  2.5957e-09  0:00:05    9

  iter  continuity  x-velocity  y-velocity     time/iter
  1992  6.6253e-06  1.3300e-09  2.6134e-09  0:00:03    8
  1993  6.6948e-06  1.3295e-09  2.6268e-09  0:00:04    7
  1994  6.7421e-06  1.3297e-09  2.6344e-09  0:00:03    6
  1995  6.7816e-06  1.3282e-09  2.6366e-09  0:00:03    5
  1996  6.7954e-06  1.3266e-09  2.6343e-09  0:00:02    4
  1997  6.7919e-06  1.3252e-09  2.6306e-09  0:00:02    3
  1998  6.8076e-06  1.3270e-09  2.6257e-09  0:00:01    2
  1999  6.8220e-06  1.3289e-09  2.6327e-09  0:00:01    1
  2000  6.8122e-06  1.3282e-09  2.6386e-09  0:00:00    0

> 
adjoint/                parallel/               server/
define/                 parametric-study/       solve/
display/                plot/                   surface/
exit                    preferences/            views/
file/                   print-license-usage
mesh/                   report/

> ;create rakes
surface/rake-surface cv_inlet -0.005 -0.065 -0.005 0.065 1000

> surface/rake-surface cv_outlet 1.005 -0.065 1.005 0.065 1000

> surface/rake-surface cv_top -0.005 0.065 1.005 0.065 1000

> surface/rake-surface cv_bottom -0.005 -0.065 1.005 -0.065 1000

> surface/point-surface free-stream -15 0

> 
adjoint/                parallel/               server/
define/                 parametric-study/       solve/
display/                plot/                   surface/
exit                    preferences/            views/
file/                   print-license-usage
mesh/                   report/

> ;export data
file/export/ascii NP_CVinlet_data cv_inlet () no pressure x-velocity y-velocity dx-velocity-dx dx-velocity-dy dy-velocity-dx dy-velocity-dy q no 
Writing "NP_CVinlet_data"...

Writing information to ascii file ...
Done.

ok


Overwrite confirmations (/file/set-batch-options ...)
are on -- will therefore ignore the following journal
Error: invalid command: ok


> file/export/ascii NP_CVoutlet_data cv_outlet () no pressure x-velocity y-velocity dx-velocity-dx dx-velocity-dy dy-velocity-dx dy-velocity-dy q no 
Writing "NP_CVoutlet_data"...

Writing information to ascii file ...
Done.

ok


Overwrite confirmations (/file/set-batch-options ...)
are on -- will therefore ignore the following journal
Error: invalid command: ok


> file/export/ascii NP_CVtop_data cv_top () no pressure x-velocity y-velocity dx-velocity-dx dx-velocity-dy dy-velocity-dx dy-velocity-dy q no 
Writing "NP_CVtop_data"...

Writing information to ascii file ...
Done.

ok


Overwrite confirmations (/file/set-batch-options ...)
are on -- will therefore ignore the following journal
Error: invalid command: ok


> file/export/ascii NP_CVbottom_data cv_bottom () no pressure x-velocity y-velocity dx-velocity-dx dx-velocity-dy dy-velocity-dx dy-velocity-dy q no 
Writing "NP_CVbottom_data"...

Writing information to ascii file ...
Done.

ok


Overwrite confirmations (/file/set-batch-options ...)
are on -- will therefore ignore the following journal
Error: invalid command: ok


> file/export/ascii air_properties free-stream () no density viscosity-lam q no 
Writing "air_properties"...

Writing information to ascii file ...
Done.

ok


Overwrite confirmations (/file/set-batch-options ...)
are on -- will therefore ignore the following journal
Error: invalid command: ok


> 
adjoint/                parallel/               server/
define/                 parametric-study/       solve/
display/                plot/                   surface/
exit                    preferences/            views/
file/                   print-license-usage
mesh/                   report/

> ;flag file to know when simulation is over
file/export/ascii flag_file free-stream () no pressure q no 
Writing "flag_file"...

Writing information to ascii file ...
Done.

ok


Overwrite confirmations (/file/set-batch-options ...)
are on -- will therefore ignore the following journal
Error: invalid command: ok


> 
adjoint/                parallel/               server/
define/                 parametric-study/       solve/
display/                plot/                   surface/
exit                    preferences/            views/
file/                   print-license-usage
mesh/                   report/

> /exit y
(cx-gui-do cx-activate-item "Question*OK")

Posting ANSYS Product Improvement Program performance data 
Done.
Auto-Transcript Stop Time:  20:31:25, 01 Jul 2025 GMT Summer Time 
Total Transcript Time: 14 Minute 24 Second.
