Auto-Transcript Start Time:  19:05:06, 20 Jul 2025 GMT Summer Time 
Current Directory: "C:\Users\V.Chepuri\OneDrive - Cranfield University\irp\pablo\re_20000\AOA_2"

              Welcome to ANSYS Fluent 2024 R2

              Copyright 1987-2024 ANSYS, Inc. All Rights Reserved.
              Unauthorized use, distribution or duplication is prohibited.
              This product is subject to U.S. laws governing export and re-export.
              For full Legal Notice, see documentation.

Build Time: May 13 2024 11:28:30 EST  Build Id: 10192  
 
Connected License Server List:	1055@cclic-2.central.cranfield.ac.uk

*********************************************
Info: Your license enables 4-way parallel execution.
For faster simulations, please start the application with the appropriate parallel options.
*********************************************


     --------------------------------------------------------------
     This is an academic version of ANSYS FLUENT. Usage of this product
     license is limited to the terms and conditions specified in your ANSYS
     license form, additional terms section.
     --------------------------------------------------------------
Host spawning Node 0 on machine "37PCL050" (win64).

-------------------------------------------------------------------------------
ID    Hostname  Core  O.S.         PID    Vendor                          
-------------------------------------------------------------------------------
n0    37PCL050  1/28  Windows-x64  22568  Intel(R) Core(TM) i7-14700      
host  37PCL050        Windows-x64  24392  Intel(R) Core(TM) i7-14700      

MPI Option Selected: intel
-------------------------------------------------------------------------------

Cleanup script file is C:\\Users\\V.Chepuri\\OneDrive - Cranfield University\\irp\\pablo\\re_20000\\AOA_2\\cleanup-fluent-37PCL050-24392.bat

Posting ANSYS Product Improvement Program startup data
Done.

> (cx-gui-do cx-activate-item "Key Behavioral Changes*PanelButtons*PushButton1(OK)")
(cx-gui-do cx-activate-item "MenuBar*ReadSubMenu*Case...")
(cx-gui-do cx-set-file-dialog-entries "Select File" '( "template_medium.cas.h5") "CFF Case Files (*.cas.h5 *.msh.h5 *.MSH.h5 )")
Fast-loading "C:\PROGRA~1\ANSYSI~1\v242\fluent\fluent24.2.0\\addons\afd\lib\hdfio.bin"
Done.
Note: Rank = 0: Process affinity not being set (6).

Reading from 37PCL050:"C:/Users/V.Chepuri/OneDrive - Cranfield University/irp/pablo/re_20000/AOA_2/template_medium.cas.h5" in NODE0 mode ...
  Reading mesh ...
      181070 cells,     4 cell zones ...
          36824 mixed cells,  zone id: 2
         108032 mixed cells,  zone id: 4
          27008 mixed cells,  zone id: 12
           9206 mixed cells,  zone id: 11
      309160 faces,    14 face zones ...
          65137 2D interior faces,  zone id: 3
         181145 2D interior faces,  zone id: 5
             42 2D velocity-inlet faces,  zone id: 6
             38 2D pressure-outlet faces,  zone id: 7
             40 2D velocity-inlet faces,  zone id: 8
            458 2D interior faces,  zone id: 9
            456 2D interior faces,  zone id: 10
            228 2D parent-face faces,  zone id: 19
            229 2D parent-face faces,  zone id: 18
             20 2D parent-face faces,  zone id: 17
             19 2D parent-face faces,  zone id: 16
             21 2D parent-face faces,  zone id: 15
          45157 2D parent-face faces,  zone id: 14
          16170 2D parent-face faces,  zone id: 13
      102461 nodes,     1 node zone  ...
  Done.


Building...
     mesh
     materials,
     interface,
     domains,
	mixture
     zones,
	outlet
	inlet
	interior-fluid
	interior-porous
	symmetry
	upper
	lower
	fluid
	porous
WARNING: "Smooth" contours can't be displayed when node-values is set to off. Changing the Coloring type to "Banded".
     parallel,
Done.
(cx-use-window-id 51)
(handle-key "??")
(cx-gui-do cx-set-list-tree-selections "NavigationPane*Frame2*Table1*List_Tree2" (list "Solution|Methods"))
(cx-gui-do cx-set-list-tree-selections "NavigationPane*Frame2*Table1*List_Tree2" (list "Solution|Methods"))
(cx-gui-do cx-set-list-tree-selections "NavigationPane*Frame2*Table1*List_Tree2" (list "Solution|Methods"))
(cx-gui-do cx-activate-item "NavigationPane*Frame2*Table1*List_Tree2")
(cx-gui-do cx-set-list-tree-selections "NavigationPane*Frame2*Table1*List_Tree2" (list "Solution|Methods"))
(cx-gui-do cx-set-list-selections "Solution Methods*Table1*Table2(Pressure-Velocity Coupling)*DropDownList1(Scheme)" '( 0))
(cx-gui-do cx-activate-item "Solution Methods*Table1*Table2(Pressure-Velocity Coupling)*DropDownList1(Scheme)")
(cx-gui-do cx-activate-item "MenuBar*WriteSubMenu*Case...")
(cx-gui-do cx-set-file-dialog-entries "Select File" '( "template_medium.cas.h5") "CFF Case Files (*.cas.h5 )")
(cx-gui-do cx-activate-item "Question*OK")

Writing to 37PCL050:"C:/Users/V.Chepuri/OneDrive - Cranfield University/irp/pablo/re_20000/AOA_2/template_medium.cas.h5" in NODE0 mode and compression level 1 ...
Grouping cells for Laplace smoothing ...
      181070 cells,     4 zones ...
      309160 faces,    14 zones ...
      102461 nodes,     1 zone  ...
  Done.
Done.
(cx-gui-do cx-activate-item "MenuBar*ReadSubMenu*Journal...")

Reading journal file C:/Users/V.Chepuri/OneDrive - Cranfield University/irp/pablo/re_20000/AOA_2/template.jou...

> ;change to correct dir

file/read-case template_medium.cas.h5 Note: Rank = 0: Process affinity not being set (6).

       Clearing partially read grid.

Reading from 37PCL050:"C:\Users\V.Chepuri\OneDrive - Cranfield University\irp\pablo\re_20000\AOA_2\template_medium.cas.h5" in NODE0 mode ...
  Reading mesh ...
      181070 cells,     4 cell zones ...
          36824 mixed cells,  zone id: 2
         108032 mixed cells,  zone id: 4
          27008 mixed cells,  zone id: 12
           9206 mixed cells,  zone id: 11
      309160 faces,    14 face zones ...
          65137 2D interior faces,  zone id: 3
         181145 2D interior faces,  zone id: 5
             42 2D velocity-inlet faces,  zone id: 6
             38 2D pressure-outlet faces,  zone id: 7
             40 2D velocity-inlet faces,  zone id: 8
            458 2D interior faces,  zone id: 9
            456 2D interior faces,  zone id: 10
            228 2D parent-face faces,  zone id: 19
            229 2D parent-face faces,  zone id: 18
             20 2D parent-face faces,  zone id: 17
             19 2D parent-face faces,  zone id: 16
             21 2D parent-face faces,  zone id: 15
          45157 2D parent-face faces,  zone id: 14
          16170 2D parent-face faces,  zone id: 13
      102461 nodes,     1 node zone  ...
  Done.


Building...
     mesh
     materials,
     interface,
     domains,
	mixture
     zones,
	outlet
	inlet
	interior-fluid
	interior-porous
	symmetry
	upper
	lower
	fluid
	porous
WARNING: "Smooth" contours can't be displayed when node-values is set to off. Changing the Coloring type to "Banded".
     parallel,
Done.
OK


Overwrite confirmations (/file/set-batch-options ...)
are on -- will therefore ignore the following journal
Error: invalid command: OK


> 
adjoint/                parallel/               server/
define/                 parametric-study/       solve/
display/                plot/                   surface/
exit                    preferences/            views/
file/                   print-license-usage
mesh/                   report/

> 
adjoint/                parallel/               server/
define/                 parametric-study/       solve/
display/                plot/                   surface/
exit                    preferences/            views/
file/                   print-license-usage
mesh/                   report/

> 
adjoint/                parallel/               server/
define/                 parametric-study/       solve/
display/                plot/                   surface/
exit                    preferences/            views/
file/                   print-license-usage
mesh/                   report/

> ;run simulation
solve/initialize/initialize-flow

> solve/iterate 2000

  iter  continuity  x-velocity  y-velocity           k       omega     time/iter
     1  1.0000e+00  2.0435e-07  2.2874e-05  6.5651e-05  6.0854e-04  0:00:00 1999

 turbulent viscosity limited to viscosity ratio of 1.000000e+05 in 36 cells 
     2  1.0000e+00  2.8164e-05  6.1527e-05  6.1378e-05  1.6658e-03  0:33:18 1998

 turbulent viscosity limited to viscosity ratio of 1.000000e+05 in 63 cells 
     3  3.1076e-01  1.1480e-05  3.1332e-05  5.7871e-05  4.2266e-03  0:26:38 1997

 turbulent viscosity limited to viscosity ratio of 1.000000e+05 in 75 cells 
     4  2.3382e-01  5.4499e-06  2.3700e-05  5.5550e-05  1.4119e-03  0:21:17 1996

 turbulent viscosity limited to viscosity ratio of 1.000000e+05 in 83 cells 
     5  1.5400e-01  3.6418e-06  2.1482e-05  5.2811e-05  2.5802e-04  0:17:01 1995

 turbulent viscosity limited to viscosity ratio of 1.000000e+05 in 85 cells 
     6  1.0634e-01  3.1215e-06  2.0870e-05  5.0306e-05  2.0166e-04  0:20:16 1994

 turbulent viscosity limited to viscosity ratio of 1.000000e+05 in 86 cells 
     7  7.5133e-02  2.8741e-06  2.0661e-05  4.8080e-05  8.7806e-05  0:16:12 1993

 turbulent viscosity limited to viscosity ratio of 1.000000e+05 in 82 cells 
     8  5.3366e-02  2.7341e-06  2.0539e-05  4.6081e-05  7.3870e-05  0:12:57 1992

 turbulent viscosity limited to viscosity ratio of 1.000000e+05 in 80 cells 
     9  3.8851e-02  2.6467e-06  2.0443e-05  4.4332e-05  6.6114e-05  0:10:21 1991

 turbulent viscosity limited to viscosity ratio of 1.000000e+05 in 81 cells 
    10  2.9442e-02  2.5737e-06  2.0322e-05  4.2735e-05  6.0557e-05  0:14:55 1990

 turbulent viscosity limited to viscosity ratio of 1.000000e+05 in 79 cells 
    11  2.3374e-02  2.5041e-06  2.0190e-05  4.1270e-05  5.8579e-05  0:11:56 1989

 turbulent viscosity limited to viscosity ratio of 1.000000e+05 in 77 cells 

  iter  continuity  x-velocity  y-velocity           k       omega     time/iter
    12  1.9054e-02  2.4487e-06  2.0061e-05  3.9921e-05  6.0084e-05  0:09:32 1988

 turbulent viscosity limited to viscosity ratio of 1.000000e+05 in 79 cells 
    13  1.6239e-02  2.4023e-06  1.9934e-05  3.8676e-05  6.6355e-05  0:07:37 1987

 turbulent viscosity limited to viscosity ratio of 1.000000e+05 in 80 cells 
    14  1.4328e-02  2.3661e-06  1.9815e-05  3.7532e-05  6.7726e-05  0:06:06 1986

 turbulent viscosity limited to viscosity ratio of 1.000000e+05 in 79 cells 
    15  1.2823e-02  2.3358e-06  1.9710e-05  3.6477e-05  6.3696e-05  0:04:52 1985

 turbulent viscosity limited to viscosity ratio of 1.000000e+05 in 76 cells 
    16  1.1590e-02  2.3101e-06  1.9607e-05  3.5491e-05  5.9994e-05  0:10:31 1984

 turbulent viscosity limited to viscosity ratio of 1.000000e+05 in 77 cells 
    17  1.0977e-02  2.2868e-06  1.9506e-05  3.4569e-05  6.1082e-05  0:08:24 1983

 turbulent viscosity limited to viscosity ratio of 1.000000e+05 in 76 cells 
    18  1.0639e-02  2.2665e-06  1.9405e-05  3.3706e-05  6.2830e-05  0:06:43 1982

 turbulent viscosity limited to viscosity ratio of 1.000000e+05 in 73 cells 
    19  1.0173e-02  2.2465e-06  1.9307e-05  3.2899e-05  6.0887e-05  0:05:22 1981

 turbulent viscosity limited to viscosity ratio of 1.000000e+05 in 74 cells 
    20  1.0036e-02  2.2286e-06  1.9209e-05  3.2132e-05  6.1170e-05  0:04:18 1980

 turbulent viscosity limited to viscosity ratio of 1.000000e+05 in 74 cells 
    21  9.7826e-03  2.2117e-06  1.9114e-05  3.1415e-05  5.7037e-05  0:03:26 1979

 turbulent viscosity limited to viscosity ratio of 1.000000e+05 in 74 cells 
    22  9.8157e-03  2.1960e-06  1.9018e-05  3.0733e-05  5.6743e-05  0:09:20 1978

 turbulent viscosity limited to viscosity ratio of 1.000000e+05 in 73 cells 

  iter  continuity  x-velocity  y-velocity           k       omega     time/iter
    23  9.8944e-03  2.1812e-06  1.8922e-05  3.0088e-05  5.2820e-05  0:07:28 1977

 turbulent viscosity limited to viscosity ratio of 1.000000e+05 in 70 cells 
    24  9.7949e-03  2.1661e-06  1.8828e-05  2.9473e-05  4.9008e-05  0:05:58 1976

 turbulent viscosity limited to viscosity ratio of 1.000000e+05 in 69 cells 
    25  9.8865e-03  2.1517e-06  1.8734e-05  2.8891e-05  4.8643e-05  0:04:47 1975

 turbulent viscosity limited to viscosity ratio of 1.000000e+05 in 69 cells 
    26  9.7469e-03  2.1377e-06  1.8641e-05  2.8337e-05  4.6464e-05  0:03:49 1974

 turbulent viscosity limited to viscosity ratio of 1.000000e+05 in 69 cells 
    27  9.6722e-03  2.1250e-06  1.8548e-05  2.7808e-05  4.5899e-05  0:03:03 1973

 turbulent viscosity limited to viscosity ratio of 1.000000e+05 in 69 cells 
    28  9.8916e-03  2.1122e-06  1.8456e-05  2.7304e-05  4.4605e-05  0:09:01 1972

 turbulent viscosity limited to viscosity ratio of 1.000000e+05 in 72 cells 
    29  1.0062e-02  2.1004e-06  1.8365e-05  2.6822e-05  4.3033e-05  0:07:12 1971

 turbulent viscosity limited to viscosity ratio of 1.000000e+05 in 72 cells 
    30  9.9295e-03  2.0881e-06  1.8272e-05  2.6361e-05  4.2546e-05  0:05:46 1970

 turbulent viscosity limited to viscosity ratio of 1.000000e+05 in 71 cells 
    31  9.8290e-03  2.0757e-06  1.8182e-05  2.5918e-05  4.1850e-05  0:04:37 1969

 turbulent viscosity limited to viscosity ratio of 1.000000e+05 in 71 cells 
    32  9.7527e-03  2.0637e-06  1.8093e-05  2.5493e-05  4.0466e-05  0:03:41 1968

 turbulent viscosity limited to viscosity ratio of 1.000000e+05 in 69 cells 
    33  1.0014e-02  2.0518e-06  1.8003e-05  2.5085e-05  4.0271e-05  0:09:30 1967

 turbulent viscosity limited to viscosity ratio of 1.000000e+05 in 67 cells 

  iter  continuity  x-velocity  y-velocity           k       omega     time/iter
    34  9.9305e-03  2.0402e-06  1.7914e-05  2.4693e-05  4.1029e-05  0:07:36 1966

 turbulent viscosity limited to viscosity ratio of 1.000000e+05 in 65 cells 
    35  9.7534e-03  2.0286e-06  1.7827e-05  2.4316e-05  4.0529e-05  0:06:05 1965

 turbulent viscosity limited to viscosity ratio of 1.000000e+05 in 64 cells 
    36  1.0003e-02  2.0175e-06  1.7741e-05  2.3953e-05  4.0949e-05  0:04:51 1964

 turbulent viscosity limited to viscosity ratio of 1.000000e+05 in 63 cells 
    37  1.0168e-02  2.0064e-06  1.7654e-05  2.3602e-05  4.2953e-05  0:03:53 1963

 turbulent viscosity limited to viscosity ratio of 1.000000e+05 in 65 cells 
    38  1.0069e-02  1.9950e-06  1.7568e-05  2.3283e-05  4.2715e-05  0:03:06 1962

 turbulent viscosity limited to viscosity ratio of 1.000000e+05 in 65 cells 
    39  9.9672e-03  1.9838e-06  1.7482e-05  2.2974e-05  4.4724e-05  0:09:01 1961

 turbulent viscosity limited to viscosity ratio of 1.000000e+05 in 64 cells 
    40  1.0305e-02  1.9722e-06  1.7398e-05  2.2674e-05  4.8428e-05  0:07:13 1960

 turbulent viscosity limited to viscosity ratio of 1.000000e+05 in 65 cells 
    41  1.0687e-02  1.9608e-06  1.7314e-05  2.2385e-05  4.9733e-05  0:05:46 1959

 turbulent viscosity limited to viscosity ratio of 1.000000e+05 in 65 cells 
    42  1.0902e-02  1.9498e-06  1.7230e-05  2.2104e-05  4.6978e-05  0:04:37 1958

 turbulent viscosity limited to viscosity ratio of 1.000000e+05 in 62 cells 
    43  1.1068e-02  1.9399e-06  1.7148e-05  2.1835e-05  4.4230e-05  0:03:41 1957

 turbulent viscosity limited to viscosity ratio of 1.000000e+05 in 61 cells 
    44  1.1326e-02  1.9294e-06  1.7066e-05  2.1569e-05  4.7388e-05  0:02:57 1956

 turbulent viscosity limited to viscosity ratio of 1.000000e+05 in 61 cells 

  iter  continuity  x-velocity  y-velocity           k       omega     time/iter
    45  1.1680e-02  1.9185e-06  1.6984e-05  2.1309e-05  5.1563e-05  0:08:52 1955

 turbulent viscosity limited to viscosity ratio of 1.000000e+05 in 60 cells 
    46  1.1928e-02  1.9078e-06  1.6903e-05  2.1059e-05  5.5632e-05  0:07:06 1954

 turbulent viscosity limited to viscosity ratio of 1.000000e+05 in 60 cells 
    47  1.2282e-02  1.8980e-06  1.6822e-05  2.0814e-05  5.7842e-05  0:05:40 1953

 turbulent viscosity limited to viscosity ratio of 1.000000e+05 in 60 cells 
    48  1.2475e-02  1.8888e-06  1.6743e-05  2.0577e-05  5.6308e-05  0:04:32 1952

 turbulent viscosity limited to viscosity ratio of 1.000000e+05 in 59 cells 
    49  1.2884e-02  1.8782e-06  1.6663e-05  2.0347e-05  4.9546e-05  0:03:38 1951

 turbulent viscosity limited to viscosity ratio of 1.000000e+05 in 60 cells 
    50  1.2507e-02  1.8671e-06  1.6583e-05  2.0120e-05  4.7005e-05  0:02:54 1950

 turbulent viscosity limited to viscosity ratio of 1.000000e+05 in 59 cells 
    51  1.2670e-02  1.8581e-06  1.6505e-05  1.9900e-05  4.2537e-05  0:08:49 1949

 turbulent viscosity limited to viscosity ratio of 1.000000e+05 in 59 cells 
    52  1.2508e-02  1.8474e-06  1.6427e-05  1.9684e-05  3.9966e-05  0:07:03 1948

 turbulent viscosity limited to viscosity ratio of 1.000000e+05 in 58 cells 
    53  1.2473e-02  1.8380e-06  1.6350e-05  1.9472e-05  3.8715e-05  0:05:38 1947

 turbulent viscosity limited to viscosity ratio of 1.000000e+05 in 54 cells 
    54  1.2978e-02  1.8280e-06  1.6272e-05  1.9266e-05  3.7277e-05  0:11:00 1946

 turbulent viscosity limited to viscosity ratio of 1.000000e+05 in 54 cells 
    55  1.2775e-02  1.8186e-06  1.6195e-05  1.9065e-05  3.7328e-05  0:08:47 1945

 turbulent viscosity limited to viscosity ratio of 1.000000e+05 in 54 cells 

  iter  continuity  x-velocity  y-velocity           k       omega     time/iter
    56  1.2584e-02  1.8092e-06  1.6118e-05  1.8867e-05  3.6650e-05  0:07:02 1944

 turbulent viscosity limited to viscosity ratio of 1.000000e+05 in 55 cells 
    57  1.2679e-02  1.7992e-06  1.6042e-05  1.8675e-05  3.5723e-05  0:12:06 1943

 turbulent viscosity limited to viscosity ratio of 1.000000e+05 in 55 cells 
    58  1.2875e-02  1.7900e-06  1.5966e-05  1.8499e-05  3.4743e-05  0:09:40 1942

 turbulent viscosity limited to viscosity ratio of 1.000000e+05 in 55 cells 
    59  1.3193e-02  1.7806e-06  1.5889e-05  1.8334e-05  3.3476e-05  0:07:44 1941

 turbulent viscosity limited to viscosity ratio of 1.000000e+05 in 54 cells 
    60  1.2926e-02  1.7709e-06  1.5814e-05  1.8164e-05  3.2703e-05  0:12:39 1940

 turbulent viscosity limited to viscosity ratio of 1.000000e+05 in 54 cells 
    61  1.2293e-02  1.7610e-06  1.5739e-05  1.7985e-05  3.2160e-05  0:10:07 1939

 turbulent viscosity limited to viscosity ratio of 1.000000e+05 in 54 cells 
    62  1.2368e-02  1.7513e-06  1.5663e-05  1.7796e-05  3.1890e-05  0:08:05 1938

 turbulent viscosity limited to viscosity ratio of 1.000000e+05 in 55 cells 
    63  1.2300e-02  1.7421e-06  1.5589e-05  1.7597e-05  3.2295e-05  0:06:28 1937

 turbulent viscosity limited to viscosity ratio of 1.000000e+05 in 55 cells 
    64  1.2288e-02  1.7330e-06  1.5516e-05  1.7434e-05  3.2947e-05  0:11:37 1936

 turbulent viscosity limited to viscosity ratio of 1.000000e+05 in 54 cells 
    65  1.1760e-02  1.7236e-06  1.5442e-05  1.7266e-05  3.0619e-05  0:09:18 1935

 turbulent viscosity limited to viscosity ratio of 1.000000e+05 in 56 cells 
    66  1.2099e-02  1.7145e-06  1.5370e-05  1.7113e-05  4.2628e-05  0:07:26 1934

 turbulent viscosity limited to viscosity ratio of 1.000000e+05 in 55 cells 

  iter  continuity  x-velocity  y-velocity           k       omega     time/iter
    67  1.1957e-02  1.7060e-06  1.5298e-05  1.6971e-05  3.0634e-05  0:12:23 1933

 turbulent viscosity limited to viscosity ratio of 1.000000e+05 in 58 cells 
    68  1.2185e-02  1.6975e-06  1.5227e-05  1.6849e-05  3.1601e-05  0:09:54 1932

 turbulent viscosity limited to viscosity ratio of 1.000000e+05 in 59 cells 
    69  1.2667e-02  1.6895e-06  1.5154e-05  1.6640e-05  3.0059e-05  0:07:55 1931

 turbulent viscosity limited to viscosity ratio of 1.000000e+05 in 58 cells 
    70  1.2594e-02  1.6806e-06  1.5082e-05  1.6461e-05  2.7565e-05  0:12:46 1930

 turbulent viscosity limited to viscosity ratio of 1.000000e+05 in 58 cells 
    71  1.2611e-02  1.6714e-06  1.5012e-05  1.6306e-05  2.7180e-05  0:10:12 1929

 turbulent viscosity limited to viscosity ratio of 1.000000e+05 in 57 cells 
    72  1.3058e-02  1.6628e-06  1.4942e-05  1.6174e-05  2.7080e-05  0:08:10 1928

 turbulent viscosity limited to viscosity ratio of 1.000000e+05 in 58 cells 
    73  1.3020e-02  1.6548e-06  1.4872e-05  1.6053e-05  2.7244e-05  0:06:32 1927

 turbulent viscosity limited to viscosity ratio of 1.000000e+05 in 58 cells 
    74  1.2842e-02  1.6468e-06  1.4803e-05  1.5888e-05  2.8550e-05  0:11:38 1926

 turbulent viscosity limited to viscosity ratio of 1.000000e+05 in 58 cells 
    75  1.2828e-02  1.6387e-06  1.4732e-05  1.5697e-05  2.7300e-05  0:09:18 1925

 turbulent viscosity limited to viscosity ratio of 1.000000e+05 in 58 cells 
    76  1.2464e-02  1.6299e-06  1.4662e-05  1.5532e-05  2.8102e-05  0:07:26 1924

 turbulent viscosity limited to viscosity ratio of 1.000000e+05 in 58 cells 
    77  1.2417e-02  1.6215e-06  1.4594e-05  1.5385e-05  2.7979e-05  0:12:22 1923

 turbulent viscosity limited to viscosity ratio of 1.000000e+05 in 59 cells 

  iter  continuity  x-velocity  y-velocity           k       omega     time/iter
    78  1.2407e-02  1.6136e-06  1.4526e-05  1.5259e-05  2.7311e-05  0:09:53 1922

 turbulent viscosity limited to viscosity ratio of 1.000000e+05 in 61 cells 
    79  1.2548e-02  1.6060e-06  1.4460e-05  1.5144e-05  2.7118e-05  0:07:54 1921

 turbulent viscosity limited to viscosity ratio of 1.000000e+05 in 61 cells 
    80  1.2572e-02  1.5987e-06  1.4394e-05  1.4997e-05  2.7398e-05  0:12:43 1920

 turbulent viscosity limited to viscosity ratio of 1.000000e+05 in 62 cells 
    81  1.2388e-02  1.5903e-06  1.4325e-05  1.4819e-05  2.6109e-05  0:10:10 1919

 turbulent viscosity limited to viscosity ratio of 1.000000e+05 in 63 cells 
    82  1.2183e-02  1.5819e-06  1.4257e-05  1.4670e-05  2.5232e-05  0:08:08 1918

 turbulent viscosity limited to viscosity ratio of 1.000000e+05 in 63 cells 
    83  1.1997e-02  1.5736e-06  1.4191e-05  1.4524e-05  2.4346e-05  0:06:30 1917

 turbulent viscosity limited to viscosity ratio of 1.000000e+05 in 65 cells 
    84  1.1909e-02  1.5660e-06  1.4125e-05  1.4384e-05  2.3807e-05  0:11:35 1916

 turbulent viscosity limited to viscosity ratio of 1.000000e+05 in 64 cells 
    85  1.1561e-02  1.5573e-06  1.4059e-05  1.4241e-05  2.2764e-05  0:09:16 1915

 turbulent viscosity limited to viscosity ratio of 1.000000e+05 in 64 cells 
    86  1.1128e-02  1.5482e-06  1.3994e-05  1.4109e-05  2.1711e-05  0:07:24 1914

 turbulent viscosity limited to viscosity ratio of 1.000000e+05 in 66 cells 
    87  1.0950e-02  1.5390e-06  1.3930e-05  1.3989e-05  2.0217e-05  0:12:18 1913

 turbulent viscosity limited to viscosity ratio of 1.000000e+05 in 68 cells 
    88  1.0858e-02  1.5311e-06  1.3865e-05  1.3870e-05  1.9545e-05  0:09:50 1912

 turbulent viscosity limited to viscosity ratio of 1.000000e+05 in 69 cells 

  iter  continuity  x-velocity  y-velocity           k       omega     time/iter
    89  1.0529e-02  1.5226e-06  1.3801e-05  1.3761e-05  1.8830e-05  0:07:52 1911

 turbulent viscosity limited to viscosity ratio of 1.000000e+05 in 71 cells 
    90  1.0270e-02  1.5147e-06  1.3737e-05  1.3661e-05  1.8447e-05  0:06:17 1910

 turbulent viscosity limited to viscosity ratio of 1.000000e+05 in 72 cells 
    91  1.0092e-02  1.5072e-06  1.3674e-05  1.3564e-05  1.8226e-05  0:11:23 1909

 turbulent viscosity limited to viscosity ratio of 1.000000e+05 in 71 cells 
    92  1.0177e-02  1.4990e-06  1.3613e-05  1.3465e-05  1.8069e-05  0:09:06 1908

 turbulent viscosity limited to viscosity ratio of 1.000000e+05 in 73 cells 
    93  1.0167e-02  1.4911e-06  1.3552e-05  1.3371e-05  1.7865e-05  0:07:17 1907

 turbulent viscosity limited to viscosity ratio of 1.000000e+05 in 73 cells 
    94  9.9523e-03  1.4837e-06  1.3488e-05  1.3229e-05  1.7880e-05  0:12:11 1906

 turbulent viscosity limited to viscosity ratio of 1.000000e+05 in 73 cells 
    95  9.9225e-03  1.4771e-06  1.3426e-05  1.3111e-05  1.6621e-05  0:09:44 1905

 turbulent viscosity limited to viscosity ratio of 1.000000e+05 in 77 cells 
    96  9.8431e-03  1.4697e-06  1.3364e-05  1.3006e-05  1.6490e-05  0:07:47 1904

 turbulent viscosity limited to viscosity ratio of 1.000000e+05 in 78 cells 
    97  9.7094e-03  1.4626e-06  1.3303e-05  1.2914e-05  1.6428e-05  0:12:34 1903

 turbulent viscosity limited to viscosity ratio of 1.000000e+05 in 78 cells 
    98  1.0065e-02  1.4570e-06  1.3242e-05  1.2848e-05  1.6504e-05  0:10:03 1902

 turbulent viscosity limited to viscosity ratio of 1.000000e+05 in 79 cells 
    99  1.0359e-02  1.4525e-06  1.3183e-05  1.2824e-05  1.6658e-05  0:08:02 1901

 turbulent viscosity limited to viscosity ratio of 1.000000e+05 in 80 cells 

  iter  continuity  x-velocity  y-velocity           k       omega     time/iter
   100  1.0450e-02  1.4448e-06  1.3126e-05  1.2755e-05  1.6747e-05  0:06:25 1900

 turbulent viscosity limited to viscosity ratio of 1.000000e+05 in 82 cells 
   101  1.0236e-02  1.4373e-06  1.3067e-05  1.2625e-05  1.7158e-05  0:11:28 1899

 turbulent viscosity limited to viscosity ratio of 1.000000e+05 in 84 cells 
   102  1.0265e-02  1.4345e-06  1.3009e-05  1.2615e-05  1.8121e-05  0:09:10 1898

 turbulent viscosity limited to viscosity ratio of 1.000000e+05 in 85 cells 
   103  1.0367e-02  1.4300e-06  1.2953e-05  1.2597e-05  1.8110e-05  0:13:39 1897

 turbulent viscosity limited to viscosity ratio of 1.000000e+05 in 86 cells 
   104  1.0665e-02  1.4263e-06  1.2895e-05  1.2467e-05  1.7427e-05  0:10:55 1896

 turbulent viscosity limited to viscosity ratio of 1.000000e+05 in 85 cells 
   105  1.1013e-02  1.4200e-06  1.2842e-05  1.2338e-05  1.6950e-05  0:08:44 1895

 turbulent viscosity limited to viscosity ratio of 1.000000e+05 in 87 cells 
   106  1.0933e-02  1.4099e-06  1.2781e-05  1.2165e-05  1.6315e-05  0:06:59 1894

 turbulent viscosity limited to viscosity ratio of 1.000000e+05 in 86 cells 
   107  1.0266e-02  1.4001e-06  1.2718e-05  1.2045e-05  1.5158e-05  0:11:53 1893

 turbulent viscosity limited to viscosity ratio of 1.000000e+05 in 86 cells 
   108  9.9380e-03  1.3904e-06  1.2657e-05  1.1983e-05  1.5022e-05  0:09:30 1892

 turbulent viscosity limited to viscosity ratio of 1.000000e+05 in 88 cells 
   109  9.8701e-03  1.3847e-06  1.2602e-05  1.1958e-05  1.5282e-05  0:07:36 1891

 turbulent viscosity limited to viscosity ratio of 1.000000e+05 in 91 cells 
   110  1.0212e-02  1.3799e-06  1.2552e-05  1.1922e-05  1.5624e-05  0:12:23 1890

 turbulent viscosity limited to viscosity ratio of 1.000000e+05 in 88 cells 

  iter  continuity  x-velocity  y-velocity           k       omega     time/iter
   111  1.0061e-02  1.3729e-06  1.2495e-05  1.1760e-05  1.5104e-05  0:09:54 1889

 turbulent viscosity limited to viscosity ratio of 1.000000e+05 in 88 cells 
   112  9.6656e-03  1.3618e-06  1.2432e-05  1.1628e-05  1.4351e-05  0:07:55 1888

 turbulent viscosity limited to viscosity ratio of 1.000000e+05 in 88 cells 
   113  8.9663e-03  1.3532e-06  1.2371e-05  1.1543e-05  1.4352e-05  0:12:37 1887

 turbulent viscosity limited to viscosity ratio of 1.000000e+05 in 88 cells 
   114  8.7707e-03  1.3453e-06  1.2314e-05  1.1494e-05  1.4679e-05  0:10:05 1886

 turbulent viscosity limited to viscosity ratio of 1.000000e+05 in 88 cells 
   115  8.7508e-03  1.3387e-06  1.2262e-05  1.1453e-05  1.4022e-05  0:08:04 1885

 turbulent viscosity limited to viscosity ratio of 1.000000e+05 in 89 cells 
   116  8.9311e-03  1.3336e-06  1.2210e-05  1.1373e-05  1.3783e-05  0:06:27 1884

 turbulent viscosity limited to viscosity ratio of 1.000000e+05 in 88 cells 
   117  8.8106e-03  1.3282e-06  1.2156e-05  1.1253e-05  1.2933e-05  0:11:26 1883

 turbulent viscosity limited to viscosity ratio of 1.000000e+05 in 88 cells 
   118  8.7378e-03  1.3206e-06  1.2097e-05  1.1168e-05  1.2809e-05  0:09:09 1882

 turbulent viscosity limited to viscosity ratio of 1.000000e+05 in 88 cells 
   119  8.5343e-03  1.3109e-06  1.2043e-05  1.1091e-05  1.2758e-05  0:07:19 1881

 turbulent viscosity limited to viscosity ratio of 1.000000e+05 in 88 cells 
   120  8.2719e-03  1.3037e-06  1.1986e-05  1.1017e-05  1.2780e-05  0:12:07 1880

 turbulent viscosity limited to viscosity ratio of 1.000000e+05 in 89 cells 
   121  8.0662e-03  1.2973e-06  1.1932e-05  1.0946e-05  1.2883e-05  0:09:41 1879

 turbulent viscosity limited to viscosity ratio of 1.000000e+05 in 89 cells 

  iter  continuity  x-velocity  y-velocity           k       omega     time/iter
   122  7.9343e-03  1.2915e-06  1.1876e-05  1.0863e-05  1.2932e-05  0:07:45 1878

 turbulent viscosity limited to viscosity ratio of 1.000000e+05 in 89 cells 
   123  7.8184e-03  1.2841e-06  1.1822e-05  1.0781e-05  1.2494e-05  0:06:11 1877

 turbulent viscosity limited to viscosity ratio of 1.000000e+05 in 89 cells 
   124  7.7163e-03  1.2774e-06  1.1769e-05  1.0708e-05  1.2394e-05  0:11:12 1876

 turbulent viscosity limited to viscosity ratio of 1.000000e+05 in 89 cells 
   125  7.5405e-03  1.2705e-06  1.1716e-05  1.0639e-05  1.2362e-05  0:08:57 1875

 turbulent viscosity limited to viscosity ratio of 1.000000e+05 in 89 cells 
   126  7.3612e-03  1.2644e-06  1.1664e-05  1.0570e-05  1.2309e-05  0:07:10 1874

 turbulent viscosity limited to viscosity ratio of 1.000000e+05 in 89 cells 
   127  7.4060e-03  1.2584e-06  1.1612e-05  1.0502e-05  1.2286e-05  0:11:58 1873

 turbulent viscosity limited to viscosity ratio of 1.000000e+05 in 89 cells 
   128  7.3362e-03  1.2528e-06  1.1560e-05  1.0434e-05  1.2251e-05  0:09:34 1872

 turbulent viscosity limited to viscosity ratio of 1.000000e+05 in 90 cells 
   129  7.2779e-03  1.2468e-06  1.1509e-05  1.0367e-05  1.2227e-05  0:07:39 1871

 turbulent viscosity limited to viscosity ratio of 1.000000e+05 in 91 cells 
   130  7.1255e-03  1.2407e-06  1.1457e-05  1.0300e-05  1.2211e-05  0:06:07 1870

 turbulent viscosity limited to viscosity ratio of 1.000000e+05 in 91 cells 
   131  7.0534e-03  1.2342e-06  1.1405e-05  1.0233e-05  1.2220e-05  0:11:07 1869

 turbulent viscosity limited to viscosity ratio of 1.000000e+05 in 91 cells 
   132  6.9312e-03  1.2273e-06  1.1354e-05  1.0167e-05  1.2123e-05  0:08:54 1868

 turbulent viscosity limited to viscosity ratio of 1.000000e+05 in 91 cells 

  iter  continuity  x-velocity  y-velocity           k       omega     time/iter
   133  6.7432e-03  1.2208e-06  1.1303e-05  1.0102e-05  1.2057e-05  0:07:07 1867

 turbulent viscosity limited to viscosity ratio of 1.000000e+05 in 90 cells 
   134  6.5985e-03  1.2144e-06  1.1252e-05  1.0038e-05  1.2011e-05  0:11:54 1866

 turbulent viscosity limited to viscosity ratio of 1.000000e+05 in 91 cells 
   135  6.4858e-03  1.2081e-06  1.1201e-05  9.9733e-06  1.1977e-05  0:09:31 1865

 turbulent viscosity limited to viscosity ratio of 1.000000e+05 in 90 cells 
   136  6.3350e-03  1.2014e-06  1.1151e-05  9.9095e-06  1.1939e-05  0:07:37 1864

 turbulent viscosity limited to viscosity ratio of 1.000000e+05 in 89 cells 
   137  6.2289e-03  1.1949e-06  1.1101e-05  9.8462e-06  1.1902e-05  0:06:05 1863

 turbulent viscosity limited to viscosity ratio of 1.000000e+05 in 89 cells 
   138  6.1823e-03  1.1888e-06  1.1052e-05  9.7833e-06  1.1862e-05  0:11:04 1862

 turbulent viscosity limited to viscosity ratio of 1.000000e+05 in 89 cells 
   139  6.1898e-03  1.1827e-06  1.1002e-05  9.7208e-06  1.1824e-05  0:08:51 1861

 turbulent viscosity limited to viscosity ratio of 1.000000e+05 in 89 cells 
   140  6.1151e-03  1.1766e-06  1.0954e-05  9.6586e-06  1.1780e-05  0:07:05 1860

 turbulent viscosity limited to viscosity ratio of 1.000000e+05 in 89 cells 
   141  6.0170e-03  1.1704e-06  1.0905e-05  9.5969e-06  1.1739e-05  0:11:51 1859

 turbulent viscosity limited to viscosity ratio of 1.000000e+05 in 90 cells 
   142  6.0419e-03  1.1648e-06  1.0856e-05  9.5355e-06  1.1702e-05  0:09:29 1858

 turbulent viscosity limited to viscosity ratio of 1.000000e+05 in 90 cells 
   143  6.0083e-03  1.1588e-06  1.0808e-05  9.4746e-06  1.1673e-05  0:07:35 1857

 turbulent viscosity limited to viscosity ratio of 1.000000e+05 in 91 cells 

  iter  continuity  x-velocity  y-velocity           k       omega     time/iter
   144  6.0028e-03  1.1532e-06  1.0760e-05  9.4140e-06  1.1647e-05  0:12:15 1856

 turbulent viscosity limited to viscosity ratio of 1.000000e+05 in 92 cells 
   145  5.9547e-03  1.1475e-06  1.0712e-05  9.3538e-06  1.1625e-05  0:09:48 1855

 turbulent viscosity limited to viscosity ratio of 1.000000e+05 in 92 cells 
   146  5.7784e-03  1.1415e-06  1.0664e-05  9.2940e-06  1.1617e-05  0:07:50 1854

 turbulent viscosity limited to viscosity ratio of 1.000000e+05 in 90 cells 
   147  5.6049e-03  1.1353e-06  1.0616e-05  9.2347e-06  1.1595e-05  0:12:26 1853

 turbulent viscosity limited to viscosity ratio of 1.000000e+05 in 90 cells 
   148  5.5667e-03  1.1295e-06  1.0569e-05  9.1757e-06  1.1520e-05  0:09:57 1852

 turbulent viscosity limited to viscosity ratio of 1.000000e+05 in 91 cells 
   149  5.5364e-03  1.1236e-06  1.0522e-05  9.1171e-06  1.1481e-05  0:07:57 1851

 turbulent viscosity limited to viscosity ratio of 1.000000e+05 in 91 cells 
   150  5.5326e-03  1.1176e-06  1.0476e-05  9.0589e-06  1.1456e-05  0:12:31 1850

 turbulent viscosity limited to viscosity ratio of 1.000000e+05 in 90 cells 
   151  5.4995e-03  1.1120e-06  1.0430e-05  9.0010e-06  1.1431e-05  0:10:01 1849

 turbulent viscosity limited to viscosity ratio of 1.000000e+05 in 90 cells 
   152  5.4155e-03  1.1064e-06  1.0384e-05  8.9438e-06  1.1419e-05  0:08:00 1848

 turbulent viscosity limited to viscosity ratio of 1.000000e+05 in 89 cells 
   153  5.3893e-03  1.1009e-06  1.0338e-05  8.8870e-06  1.1418e-05  0:06:24 1847

 turbulent viscosity limited to viscosity ratio of 1.000000e+05 in 88 cells 
   154  5.3153e-03  1.0954e-06  1.0293e-05  8.8307e-06  1.1397e-05  0:11:16 1846

 turbulent viscosity limited to viscosity ratio of 1.000000e+05 in 88 cells 

  iter  continuity  x-velocity  y-velocity           k       omega     time/iter
   155  5.3532e-03  1.0901e-06  1.0248e-05  8.7749e-06  1.1361e-05  0:09:01 1845

 turbulent viscosity limited to viscosity ratio of 1.000000e+05 in 87 cells 
   156  5.3332e-03  1.0849e-06  1.0203e-05  8.7196e-06  1.1344e-05  0:07:12 1844

 turbulent viscosity limited to viscosity ratio of 1.000000e+05 in 86 cells 
   157  5.3654e-03  1.0795e-06  1.0158e-05  8.6650e-06  1.1339e-05  0:11:54 1843

 turbulent viscosity limited to viscosity ratio of 1.000000e+05 in 87 cells 
   158  5.3643e-03  1.0744e-06  1.0114e-05  8.6107e-06  1.1365e-05  0:09:31 1842

 turbulent viscosity limited to viscosity ratio of 1.000000e+05 in 87 cells 
   159  5.2756e-03  1.0704e-06  1.0071e-05  8.5558e-06  1.1462e-05  0:07:37 1841

 turbulent viscosity limited to viscosity ratio of 1.000000e+05 in 88 cells 
   160  5.1982e-03  1.0667e-06  1.0027e-05  8.4981e-06  1.1322e-05  0:12:13 1840

 turbulent viscosity limited to viscosity ratio of 1.000000e+05 in 88 cells 
   161  5.2618e-03  1.0608e-06  9.9828e-06  8.4435e-06  1.1249e-05  0:09:46 1839

 turbulent viscosity limited to viscosity ratio of 1.000000e+05 in 90 cells 
   162  5.2828e-03  1.0555e-06  9.9392e-06  8.3898e-06  1.1192e-05  0:07:49 1838

 turbulent viscosity limited to viscosity ratio of 1.000000e+05 in 90 cells 
   163  5.2111e-03  1.0500e-06  9.8952e-06  8.3365e-06  1.1169e-05  0:06:15 1837

 turbulent viscosity limited to viscosity ratio of 1.000000e+05 in 88 cells 
   164  5.1290e-03  1.0441e-06  9.8510e-06  8.2836e-06  1.1132e-05  0:11:07 1836

 turbulent viscosity limited to viscosity ratio of 1.000000e+05 in 88 cells 
   165  5.1103e-03  1.0389e-06  9.8075e-06  8.2311e-06  1.1112e-05  0:08:53 1835

 turbulent viscosity limited to viscosity ratio of 1.000000e+05 in 88 cells 

  iter  continuity  x-velocity  y-velocity           k       omega     time/iter
   166  5.0744e-03  1.0339e-06  9.7642e-06  8.1790e-06  1.1093e-05  0:07:06 1834

 turbulent viscosity limited to viscosity ratio of 1.000000e+05 in 87 cells 
   167  5.0615e-03  1.0291e-06  9.7214e-06  8.1273e-06  1.1081e-05  0:11:47 1833

 turbulent viscosity limited to viscosity ratio of 1.000000e+05 in 85 cells 
   168  5.1041e-03  1.0242e-06  9.6790e-06  8.0759e-06  1.1066e-05  0:09:26 1832

 turbulent viscosity limited to viscosity ratio of 1.000000e+05 in 85 cells 
   169  5.2290e-03  1.0197e-06  9.6370e-06  8.0250e-06  1.1054e-05  0:07:32 1831

 turbulent viscosity limited to viscosity ratio of 1.000000e+05 in 85 cells 
   170  5.2793e-03  1.0151e-06  9.5955e-06  7.9745e-06  1.1044e-05  0:06:02 1830

 turbulent viscosity limited to viscosity ratio of 1.000000e+05 in 84 cells 
   171  5.3437e-03  1.0108e-06  9.5542e-06  7.9246e-06  1.1036e-05  0:10:55 1829

 turbulent viscosity limited to viscosity ratio of 1.000000e+05 in 85 cells 
   172  5.3418e-03  1.0064e-06  9.5133e-06  7.8752e-06  1.1034e-05  0:08:44 1828

 turbulent viscosity limited to viscosity ratio of 1.000000e+05 in 84 cells 
   173  5.3832e-03  1.0019e-06  9.4726e-06  7.8263e-06  1.1025e-05  0:06:59 1827

 turbulent viscosity limited to viscosity ratio of 1.000000e+05 in 84 cells 
   174  5.3588e-03  9.9756e-07  9.4321e-06  7.7779e-06  1.1046e-05  0:11:40 1826

 turbulent viscosity limited to viscosity ratio of 1.000000e+05 in 85 cells 
   175  5.5047e-03  9.9348e-07  9.3921e-06  7.7299e-06  1.1071e-05  0:09:20 1825

 turbulent viscosity limited to viscosity ratio of 1.000000e+05 in 84 cells 
   176  5.4325e-03  9.8921e-07  9.3515e-06  7.6817e-06  1.1227e-05  0:07:27 1824

 turbulent viscosity limited to viscosity ratio of 1.000000e+05 in 84 cells 

  iter  continuity  x-velocity  y-velocity           k       omega     time/iter
   177  5.3168e-03  9.8471e-07  9.3098e-06  7.6326e-06  1.0889e-05  0:05:58 1823

 turbulent viscosity limited to viscosity ratio of 1.000000e+05 in 86 cells 
   178  5.1247e-03  9.7924e-07  9.2693e-06  7.5842e-06  1.0857e-05  0:10:50 1822

 turbulent viscosity limited to viscosity ratio of 1.000000e+05 in 86 cells 
   179  5.3191e-03  9.7442e-07  9.2293e-06  7.5372e-06  1.0833e-05  0:08:40 1821

 turbulent viscosity limited to viscosity ratio of 1.000000e+05 in 88 cells 
   180  5.1182e-03  9.7004e-07  9.1900e-06  7.4906e-06  1.0869e-05  0:06:56 1820

 turbulent viscosity limited to viscosity ratio of 1.000000e+05 in 91 cells 
   181  5.3055e-03  9.6564e-07  9.1513e-06  7.4444e-06  1.0969e-05  0:11:36 1819

 turbulent viscosity limited to viscosity ratio of 1.000000e+05 in 94 cells 
   182  5.1683e-03  9.6118e-07  9.1121e-06  7.3987e-06  1.1010e-05  0:09:17 1818

 turbulent viscosity limited to viscosity ratio of 1.000000e+05 in 93 cells 
   183  5.3189e-03  9.5753e-07  9.0736e-06  7.3532e-06  1.0734e-05  0:07:25 1817

 turbulent viscosity limited to viscosity ratio of 1.000000e+05 in 91 cells 
   184  5.2630e-03  9.5230e-07  9.0342e-06  7.3085e-06  1.0804e-05  0:11:59 1816

 turbulent viscosity limited to viscosity ratio of 1.000000e+05 in 94 cells 
   185  5.4178e-03  9.5039e-07  8.9964e-06  7.2642e-06  1.0514e-05  0:09:35 1815

 turbulent viscosity limited to viscosity ratio of 1.000000e+05 in 94 cells 
   186  5.6416e-03  9.4452e-07  8.9585e-06  7.2197e-06  1.1268e-05  0:07:40 1814

 turbulent viscosity limited to viscosity ratio of 1.000000e+05 in 96 cells 
   187  5.6604e-03  9.4276e-07  8.9222e-06  7.1762e-06  1.2009e-05  0:06:08 1813

 turbulent viscosity limited to viscosity ratio of 1.000000e+05 in 98 cells 

  iter  continuity  x-velocity  y-velocity           k       omega     time/iter
   188  5.8517e-03  9.3537e-07  8.8805e-06  7.1339e-06  1.2127e-05  0:10:56 1812

 turbulent viscosity limited to viscosity ratio of 1.000000e+05 in 99 cells 
   189  5.9255e-03  9.3243e-07  8.8465e-06  7.0902e-06  1.2082e-05  0:08:45 1811

 turbulent viscosity limited to viscosity ratio of 1.000000e+05 in 100 cells 
   190  5.6063e-03  9.2593e-07  8.8042e-06  7.0474e-06  1.1902e-05  0:07:00 1810

 turbulent viscosity limited to viscosity ratio of 1.000000e+05 in 101 cells 
   191  5.7205e-03  9.2249e-07  8.7706e-06  7.0054e-06  1.1740e-05  0:11:37 1809

 turbulent viscosity limited to viscosity ratio of 1.000000e+05 in 101 cells 
   192  5.3959e-03  9.1613e-07  8.7284e-06  6.9637e-06  1.1495e-05  0:09:18 1808

 turbulent viscosity limited to viscosity ratio of 1.000000e+05 in 99 cells 
   193  5.7474e-03  9.1281e-07  8.6958e-06  6.9224e-06  1.1190e-05  0:07:26 1807

 turbulent viscosity limited to viscosity ratio of 1.000000e+05 in 98 cells 
   194  5.3510e-03  9.1005e-07  8.6543e-06  6.8817e-06  1.0552e-05  0:11:58 1806

 turbulent viscosity limited to viscosity ratio of 1.000000e+05 in 98 cells 
   195  6.3305e-03  9.0896e-07  8.6250e-06  6.8412e-06  1.0312e-05  0:09:34 1805

 turbulent viscosity limited to viscosity ratio of 1.000000e+05 in 99 cells 
   196  6.1630e-03  9.0632e-07  8.5889e-06  6.8011e-06  1.0232e-05  0:07:39 1804

 turbulent viscosity limited to viscosity ratio of 1.000000e+05 in 99 cells 
   197  6.4966e-03  9.0603e-07  8.5557e-06  6.7615e-06  1.0075e-05  0:12:07 1803

 turbulent viscosity limited to viscosity ratio of 1.000000e+05 in 98 cells 
   198  6.4552e-03  9.0131e-07  8.5203e-06  6.7223e-06  1.0033e-05  0:09:42 1802

 turbulent viscosity limited to viscosity ratio of 1.000000e+05 in 98 cells 

  iter  continuity  x-velocity  y-velocity           k       omega     time/iter
   199  6.7377e-03  8.9987e-07  8.4860e-06  6.6835e-06  9.9136e-06  0:07:45 1801

 turbulent viscosity limited to viscosity ratio of 1.000000e+05 in 97 cells 
   200  6.5886e-03  8.9503e-07  8.4515e-06  6.6452e-06  9.9184e-06  0:06:12 1800

 turbulent viscosity limited to viscosity ratio of 1.000000e+05 in 98 cells 
   201  6.9223e-03  8.9310e-07  8.4165e-06  6.6072e-06  9.8291e-06  0:10:57 1799

 turbulent viscosity limited to viscosity ratio of 1.000000e+05 in 98 cells 
   202  6.7611e-03  8.8835e-07  8.3825e-06  6.5696e-06  9.8377e-06  0:08:45 1798

 turbulent viscosity limited to viscosity ratio of 1.000000e+05 in 97 cells 
   203  7.1917e-03  8.8546e-07  8.3472e-06  6.5324e-06  9.7684e-06  0:07:00 1797

 turbulent viscosity limited to viscosity ratio of 1.000000e+05 in 97 cells 
   204  6.9647e-03  8.8092e-07  8.3124e-06  6.4956e-06  9.7535e-06  0:11:35 1796

 turbulent viscosity limited to viscosity ratio of 1.000000e+05 in 96 cells 
   205  7.2836e-03  8.7762e-07  8.2771e-06  6.4593e-06  1.0064e-05  0:09:16 1795

 turbulent viscosity limited to viscosity ratio of 1.000000e+05 in 96 cells 
   206  7.3688e-03  8.7354e-07  8.2423e-06  6.4233e-06  1.0341e-05  0:07:24 1794

 turbulent viscosity limited to viscosity ratio of 1.000000e+05 in 97 cells 
   207  8.0825e-03  8.7035e-07  8.2090e-06  6.3880e-06  1.0280e-05  0:11:54 1793

 turbulent viscosity limited to viscosity ratio of 1.000000e+05 in 99 cells 
   208  9.0809e-03  8.8661e-07  8.1749e-06  6.3552e-06  1.5585e-05  0:09:31 1792

 turbulent viscosity limited to viscosity ratio of 1.000000e+05 in 100 cells 
   209  9.9324e-03  9.0204e-07  8.1489e-06  6.3222e-06  1.0238e-05  0:07:36 1791

 turbulent viscosity limited to viscosity ratio of 1.000000e+05 in 101 cells 

  iter  continuity  x-velocity  y-velocity           k       omega     time/iter
   210  9.4099e-03  8.9649e-07  8.1333e-06  6.2884e-06  9.9982e-06  0:06:05 1790

 turbulent viscosity limited to viscosity ratio of 1.000000e+05 in 101 cells 
   211  1.1324e-02  8.9599e-07  8.1031e-06  6.2539e-06  1.0039e-05  0:10:50 1789

 turbulent viscosity limited to viscosity ratio of 1.000000e+05 in 101 cells 
   212  1.4143e-02  9.1422e-07  8.0789e-06  6.2217e-06  9.9730e-06  0:08:39 1788

 turbulent viscosity limited to viscosity ratio of 1.000000e+05 in 102 cells 
   213  1.4435e-02  9.0888e-07  8.0458e-06  6.1843e-06  9.5983e-06  0:06:55 1787

 turbulent viscosity limited to viscosity ratio of 1.000000e+05 in 104 cells 
   214  1.4131e-02  8.8305e-07  7.9924e-06  6.1504e-06  9.5741e-06  0:11:29 1786

 turbulent viscosity limited to viscosity ratio of 1.000000e+05 in 104 cells 
   215  1.1843e-02  8.5634e-07  7.9586e-06  6.1205e-06  9.5151e-06  0:09:11 1785

 turbulent viscosity limited to viscosity ratio of 1.000000e+05 in 104 cells 
   216  1.2312e-02  8.4547e-07  7.9025e-06  6.0863e-06  9.4764e-06  0:07:21 1784

 turbulent viscosity limited to viscosity ratio of 1.000000e+05 in 106 cells 
   217  1.0489e-02  8.3227e-07  7.8687e-06  6.0553e-06  9.4384e-06  0:05:52 1783

 turbulent viscosity limited to viscosity ratio of 1.000000e+05 in 106 cells 
   218  1.1136e-02  8.2848e-07  7.8343e-06  6.0232e-06  9.4147e-06  0:10:38 1782

 turbulent viscosity limited to viscosity ratio of 1.000000e+05 in 107 cells 
   219  1.0455e-02  8.2001e-07  7.7963e-06  5.9926e-06  9.3665e-06  0:08:30 1781

 turbulent viscosity limited to viscosity ratio of 1.000000e+05 in 107 cells 
   220  1.0123e-02  8.1831e-07  7.7670e-06  5.9621e-06  9.4790e-06  0:06:48 1780

 turbulent viscosity limited to viscosity ratio of 1.000000e+05 in 107 cells 

  iter  continuity  x-velocity  y-velocity           k       omega     time/iter
   221  1.0281e-02  8.1816e-07  7.7314e-06  5.9323e-06  1.0014e-05  0:11:22 1779

 turbulent viscosity limited to viscosity ratio of 1.000000e+05 in 108 cells 
   222  1.1155e-02  8.1275e-07  7.6986e-06  5.9029e-06  1.0020e-05  0:09:05 1778

 turbulent viscosity limited to viscosity ratio of 1.000000e+05 in 107 cells 
   223  1.1102e-02  8.0994e-07  7.6644e-06  5.8740e-06  9.8275e-06  0:07:16 1777

 turbulent viscosity limited to viscosity ratio of 1.000000e+05 in 105 cells 
   224  1.0211e-02  8.0367e-07  7.6307e-06  5.8454e-06  9.6690e-06  0:11:44 1776

 turbulent viscosity limited to viscosity ratio of 1.000000e+05 in 102 cells 
   225  1.0054e-02  8.1926e-07  7.6022e-06  5.8408e-06  1.1606e-05  0:09:23 1775

 turbulent viscosity limited to viscosity ratio of 1.000000e+05 in 99 cells 
   226  1.9541e-02  8.1657e-07  7.5969e-06  5.7937e-06  1.1864e-05  0:07:30 1774

 turbulent viscosity limited to viscosity ratio of 1.000000e+05 in 99 cells 
   227  1.1382e-02  8.2210e-07  7.6135e-06  5.7658e-06  1.0812e-05  0:06:00 1773

 turbulent viscosity limited to viscosity ratio of 1.000000e+05 in 97 cells 
   228  9.8753e-03  8.2021e-07  7.5346e-06  5.7495e-06  1.0718e-05  0:10:42 1772

 turbulent viscosity limited to viscosity ratio of 1.000000e+05 in 97 cells 
   229  1.0696e-02  7.8983e-07  7.4872e-06  5.7116e-06  1.0346e-05  0:08:33 1771

 turbulent viscosity limited to viscosity ratio of 1.000000e+05 in 99 cells 
   230  8.2746e-03  7.8546e-07  7.4587e-06  5.6821e-06  1.0790e-05  0:06:50 1770

 turbulent viscosity limited to viscosity ratio of 1.000000e+05 in 98 cells 
   231  1.0453e-02  7.8583e-07  7.4216e-06  5.6585e-06  1.1003e-05  0:11:22 1769

 turbulent viscosity limited to viscosity ratio of 1.000000e+05 in 93 cells 

  iter  continuity  x-velocity  y-velocity           k       omega     time/iter
   232  8.8948e-03  7.8065e-07  7.3931e-06  5.6281e-06  1.0277e-05  0:09:05 1768

 turbulent viscosity limited to viscosity ratio of 1.000000e+05 in 93 cells 
   233  8.2244e-03  7.8723e-07  7.3546e-06  5.6030e-06  1.1828e-05  0:07:16 1767

 turbulent viscosity limited to viscosity ratio of 1.000000e+05 in 90 cells 
   234  9.3900e-03  7.7780e-07  7.3203e-06  5.5838e-06  1.1120e-05  0:05:49 1766

 turbulent viscosity limited to viscosity ratio of 1.000000e+05 in 88 cells 
   235  9.5972e-03  7.7250e-07  7.3007e-06  5.5528e-06  1.0065e-05  0:10:32 1765

 turbulent viscosity limited to viscosity ratio of 1.000000e+05 in 86 cells 
   236  7.7964e-03  7.6659e-07  7.2581e-06  5.5235e-06  1.0746e-05  0:08:25 1764

 turbulent viscosity limited to viscosity ratio of 1.000000e+05 in 85 cells 
   237  9.1352e-03  7.7347e-07  7.2330e-06  5.5045e-06  1.0455e-05  0:06:44 1763

 turbulent viscosity limited to viscosity ratio of 1.000000e+05 in 85 cells 
   238  9.3902e-03  7.6336e-07  7.2063e-06  5.4744e-06  9.5943e-06  0:11:15 1762

 turbulent viscosity limited to viscosity ratio of 1.000000e+05 in 86 cells 
   239  7.3465e-03  7.5813e-07  7.1657e-06  5.4535e-06  1.0903e-05  0:09:00 1761

 turbulent viscosity limited to viscosity ratio of 1.000000e+05 in 83 cells 
   240  8.3865e-03  7.5334e-07  7.1302e-06  5.4314e-06  1.0517e-05  0:13:04 1760

 turbulent viscosity limited to viscosity ratio of 1.000000e+05 in 83 cells 
   241  7.7018e-03  7.3804e-07  7.1026e-06  5.4023e-06  9.6963e-06  0:10:27 1759

 turbulent viscosity limited to viscosity ratio of 1.000000e+05 in 84 cells 
   242  6.5452e-03  7.3163e-07  7.0684e-06  5.3791e-06  1.0628e-05  0:08:21 1758

 turbulent viscosity limited to viscosity ratio of 1.000000e+05 in 83 cells 

  iter  continuity  x-velocity  y-velocity           k       omega     time/iter
   243  7.6570e-03  7.3677e-07  7.0346e-06  5.3599e-06  1.0171e-05  0:06:41 1757

 turbulent viscosity limited to viscosity ratio of 1.000000e+05 in 83 cells 
   244  7.5324e-03  7.2568e-07  7.0050e-06  5.3339e-06  9.6349e-06  0:11:11 1756

 turbulent viscosity limited to viscosity ratio of 1.000000e+05 in 86 cells 
   245  6.2988e-03  7.1586e-07  6.9712e-06  5.3078e-06  1.0712e-05  0:08:57 1755

 turbulent viscosity limited to viscosity ratio of 1.000000e+05 in 83 cells 
   246  6.8396e-03  7.1786e-07  6.9386e-06  5.2895e-06  1.0079e-05  0:07:09 1754

 turbulent viscosity limited to viscosity ratio of 1.000000e+05 in 83 cells 
   247  7.1760e-03  7.1163e-07  6.9091e-06  5.2665e-06  9.5719e-06  0:11:34 1753

 turbulent viscosity limited to viscosity ratio of 1.000000e+05 in 83 cells 
   248  5.8260e-03  6.9885e-07  6.8757e-06  5.2420e-06  1.0565e-05  0:09:15 1752

 turbulent viscosity limited to viscosity ratio of 1.000000e+05 in 82 cells 
   249  6.4040e-03  7.0100e-07  6.8469e-06  5.2229e-06  1.0010e-05  0:07:24 1751

 turbulent viscosity limited to viscosity ratio of 1.000000e+05 in 84 cells 
   250  6.5801e-03  6.9456e-07  6.8181e-06  5.2018e-06  9.6011e-06  0:11:45 1750

 turbulent viscosity limited to viscosity ratio of 1.000000e+05 in 85 cells 
   251  5.5481e-03  6.8614e-07  6.7872e-06  5.1789e-06  1.0742e-05  0:09:23 1749

 turbulent viscosity limited to viscosity ratio of 1.000000e+05 in 84 cells 
   252  5.7895e-03  6.8584e-07  6.7598e-06  5.1591e-06  1.0149e-05  0:07:30 1748

 turbulent viscosity limited to viscosity ratio of 1.000000e+05 in 84 cells 
   253  6.2117e-03  6.8043e-07  6.7285e-06  5.1373e-06  9.8316e-06  0:06:00 1747

 turbulent viscosity limited to viscosity ratio of 1.000000e+05 in 85 cells 

  iter  continuity  x-velocity  y-velocity           k       omega     time/iter
   254  5.1783e-03  6.7200e-07  6.7015e-06  5.1146e-06  1.1141e-05  0:10:37 1746

 turbulent viscosity limited to viscosity ratio of 1.000000e+05 in 82 cells 
   255  5.5588e-03  6.7230e-07  6.6707e-06  5.0976e-06  1.0679e-05  0:08:29 1745

 turbulent viscosity limited to viscosity ratio of 1.000000e+05 in 78 cells 
   256  5.8786e-03  6.6890e-07  6.6400e-06  5.0763e-06  1.0356e-05  0:06:47 1744

 turbulent viscosity limited to viscosity ratio of 1.000000e+05 in 79 cells 
   257  5.0347e-03  6.6214e-07  6.6122e-06  5.0548e-06  1.1234e-05  0:11:14 1743

 turbulent viscosity limited to viscosity ratio of 1.000000e+05 in 74 cells 
   258  5.6694e-03  6.6308e-07  6.5882e-06  5.0384e-06  1.0556e-05  0:08:59 1742

 turbulent viscosity limited to viscosity ratio of 1.000000e+05 in 70 cells 
   259  6.5311e-03  6.5905e-07  6.5585e-06  5.0172e-06  1.0299e-05  0:07:11 1741

 turbulent viscosity limited to viscosity ratio of 1.000000e+05 in 70 cells 
   260  6.0913e-03  6.5511e-07  6.5348e-06  4.9954e-06  1.1578e-05  0:11:33 1740

 turbulent viscosity limited to viscosity ratio of 1.000000e+05 in 67 cells 
   261  6.9079e-03  6.5765e-07  6.5046e-06  4.9806e-06  1.0553e-05  0:09:14 1739

 turbulent viscosity limited to viscosity ratio of 1.000000e+05 in 63 cells 
   262  7.6349e-03  6.5277e-07  6.4801e-06  4.9592e-06  1.0830e-05  0:07:23 1738

 turbulent viscosity limited to viscosity ratio of 1.000000e+05 in 64 cells 
   263  7.7080e-03  6.4863e-07  6.4512e-06  4.9394e-06  1.3210e-05  0:05:54 1737

 turbulent viscosity limited to viscosity ratio of 1.000000e+05 in 62 cells 
   264  8.2636e-03  6.4860e-07  6.4232e-06  4.9238e-06  1.2593e-05  0:10:30 1736

 turbulent viscosity limited to viscosity ratio of 1.000000e+05 in 59 cells 

  iter  continuity  x-velocity  y-velocity           k       omega     time/iter
   265  9.8364e-03  6.4790e-07  6.3999e-06  4.9051e-06  1.3140e-05  0:08:24 1735

 turbulent viscosity limited to viscosity ratio of 1.000000e+05 in 59 cells 
   266  1.0396e-02  6.4692e-07  6.3755e-06  4.8825e-06  1.4955e-05  0:06:43 1734

 turbulent viscosity limited to viscosity ratio of 1.000000e+05 in 56 cells 
   267  1.0068e-02  6.4080e-07  6.3480e-06  4.8629e-06  1.1727e-05  0:11:09 1733

 turbulent viscosity limited to viscosity ratio of 1.000000e+05 in 56 cells 
   268  8.8199e-03  6.3224e-07  6.3165e-06  4.8440e-06  1.0796e-05  0:08:55 1732

 turbulent viscosity limited to viscosity ratio of 1.000000e+05 in 54 cells 
   269  8.2207e-03  6.2610e-07  6.2846e-06  4.8268e-06  1.0509e-05  0:07:07 1731

 turbulent viscosity limited to viscosity ratio of 1.000000e+05 in 53 cells 
   270  8.1706e-03  6.2442e-07  6.2548e-06  4.8090e-06  1.1508e-05  0:11:28 1730

 turbulent viscosity limited to viscosity ratio of 1.000000e+05 in 53 cells 
   271  8.3335e-03  6.2265e-07  6.2296e-06  4.7910e-06  1.1972e-05  0:09:10 1729

 turbulent viscosity limited to viscosity ratio of 1.000000e+05 in 48 cells 
   272  9.3256e-03  6.2770e-07  6.2083e-06  4.7744e-06  1.1102e-05  0:07:20 1728

 turbulent viscosity limited to viscosity ratio of 1.000000e+05 in 47 cells 
   273  1.0631e-02  6.2917e-07  6.1915e-06  4.7574e-06  1.0666e-05  0:05:52 1727

 turbulent viscosity limited to viscosity ratio of 1.000000e+05 in 46 cells 
   274  1.3746e-02  6.3316e-07  6.1751e-06  4.7407e-06  1.1269e-05  0:10:26 1726

 turbulent viscosity limited to viscosity ratio of 1.000000e+05 in 43 cells 
   275  1.5710e-02  6.3187e-07  6.1563e-06  4.7244e-06  1.3145e-05  0:08:21 1725

 turbulent viscosity limited to viscosity ratio of 1.000000e+05 in 40 cells 

  iter  continuity  x-velocity  y-velocity           k       omega     time/iter
   276  1.8629e-02  6.2507e-07  6.1311e-06  4.7078e-06  1.2733e-05  0:06:40 1724

 turbulent viscosity limited to viscosity ratio of 1.000000e+05 in 38 cells 
   277  1.8764e-02  6.1962e-07  6.1045e-06  4.6908e-06  1.4061e-05  0:11:05 1723

 turbulent viscosity limited to viscosity ratio of 1.000000e+05 in 36 cells 
   278  1.7180e-02  6.1596e-07  6.0788e-06  4.6728e-06  1.2462e-05  0:08:51 1722

 turbulent viscosity limited to viscosity ratio of 1.000000e+05 in 34 cells 
   279  1.5722e-02  6.1367e-07  6.0538e-06  4.6565e-06  1.1549e-05  0:07:05 1721

 turbulent viscosity limited to viscosity ratio of 1.000000e+05 in 33 cells 
   280  1.4074e-02  6.1641e-07  6.0327e-06  4.6403e-06  1.0897e-05  0:05:40 1720

 turbulent viscosity limited to viscosity ratio of 1.000000e+05 in 32 cells 
   281  1.2970e-02  6.2148e-07  6.0125e-06  4.6243e-06  1.0203e-05  0:10:15 1719

 turbulent viscosity limited to viscosity ratio of 1.000000e+05 in 27 cells 
   282  1.2424e-02  6.2600e-07  5.9974e-06  4.6084e-06  1.0071e-05  0:08:12 1718

 turbulent viscosity limited to viscosity ratio of 1.000000e+05 in 24 cells 
   283  1.2974e-02  6.3391e-07  5.9857e-06  4.5927e-06  1.0523e-05  0:06:33 1717

 turbulent viscosity limited to viscosity ratio of 1.000000e+05 in 23 cells 
   284  1.4054e-02  6.3955e-07  5.9683e-06  4.5778e-06  1.1475e-05  0:10:58 1716

 turbulent viscosity limited to viscosity ratio of 1.000000e+05 in 24 cells 
   285  1.5021e-02  6.4419e-07  5.9534e-06  4.5641e-06  1.0667e-05  0:08:46 1715

 turbulent viscosity limited to viscosity ratio of 1.000000e+05 in 27 cells 
   286  1.7340e-02  6.7315e-07  5.9549e-06  4.5507e-06  1.2951e-05  0:12:43 1714

 turbulent viscosity limited to viscosity ratio of 1.000000e+05 in 22 cells 

  iter  continuity  x-velocity  y-velocity           k       omega     time/iter
   287  1.7790e-02  6.6698e-07  5.9239e-06  4.5340e-06  9.7548e-06  0:10:10 1713

 turbulent viscosity limited to viscosity ratio of 1.000000e+05 in 26 cells 
   288  2.4035e-02  6.6639e-07  5.9251e-06  4.5178e-06  9.8966e-06  0:08:08 1712

 turbulent viscosity limited to viscosity ratio of 1.000000e+05 in 21 cells 
   289  3.1481e-02  6.7916e-07  5.9249e-06  4.5021e-06  1.0983e-05  0:06:30 1711

 turbulent viscosity limited to viscosity ratio of 1.000000e+05 in 23 cells 
   290  3.6148e-02  6.7576e-07  5.8982e-06  4.4877e-06  9.7608e-06  0:10:54 1710

 turbulent viscosity limited to viscosity ratio of 1.000000e+05 in 23 cells 
   291  3.8216e-02  6.5581e-07  5.8381e-06  4.4741e-06  8.7228e-06  0:08:43 1709

 turbulent viscosity limited to viscosity ratio of 1.000000e+05 in 23 cells 
   292  4.4009e-02  6.7164e-07  5.7843e-06  4.4583e-06  8.6829e-06  0:06:58 1708

 turbulent viscosity limited to viscosity ratio of 1.000000e+05 in 24 cells 
   293  5.4528e-02  6.8744e-07  5.8061e-06  4.4437e-06  1.1384e-05  0:11:16 1707

 turbulent viscosity limited to viscosity ratio of 1.000000e+05 in 26 cells 
   294  4.6399e-02  6.7979e-07  5.8047e-06  4.4291e-06  9.4690e-06  0:09:00 1706

 turbulent viscosity limited to viscosity ratio of 1.000000e+05 in 25 cells 
   295  4.1144e-02  7.2869e-07  5.7679e-06  4.4153e-06  7.9473e-06  0:07:12 1705

 turbulent viscosity limited to viscosity ratio of 1.000000e+05 in 27 cells 
   296  4.1070e-02  6.8686e-07  5.7340e-06  4.4040e-06  8.3646e-06  0:11:26 1704

 turbulent viscosity limited to viscosity ratio of 1.000000e+05 in 27 cells 
   297  5.3341e-02  6.3311e-07  5.7050e-06  4.3949e-06  9.7018e-06  0:09:09 1703

 turbulent viscosity limited to viscosity ratio of 1.000000e+05 in 29 cells 

  iter  continuity  x-velocity  y-velocity           k       omega     time/iter
   298  5.9170e-02  6.1208e-07  5.6326e-06  4.3780e-06  1.0318e-05  0:07:19 1702

 turbulent viscosity limited to viscosity ratio of 1.000000e+05 in 25 cells 
   299  5.2169e-02  5.9439e-07  5.5894e-06  4.3586e-06  9.1549e-06  0:05:51 1701

 turbulent viscosity limited to viscosity ratio of 1.000000e+05 in 26 cells 
   300  4.1713e-02  5.7003e-07  5.5414e-06  4.3442e-06  8.8579e-06  0:10:20 1700

 turbulent viscosity limited to viscosity ratio of 1.000000e+05 in 27 cells 
   301  3.4896e-02  5.5433e-07  5.5104e-06  4.3300e-06  8.6926e-06  0:08:16 1699

 turbulent viscosity limited to viscosity ratio of 1.000000e+05 in 27 cells 
   302  3.0020e-02  5.4254e-07  5.4796e-06  4.3165e-06  1.0830e-05  0:06:37 1698

 turbulent viscosity limited to viscosity ratio of 1.000000e+05 in 27 cells 
   303  2.5913e-02  5.3337e-07  5.4493e-06  4.3022e-06  1.2935e-05  0:10:56 1697

 turbulent viscosity limited to viscosity ratio of 1.000000e+05 in 27 cells 
   304  2.0741e-02  5.2876e-07  5.4220e-06  4.2881e-06  1.0842e-05  0:08:45 1696

 turbulent viscosity limited to viscosity ratio of 1.000000e+05 in 27 cells 
   305  1.6973e-02  5.2495e-07  5.3954e-06  4.2738e-06  9.0654e-06  0:07:00 1695

 turbulent viscosity limited to viscosity ratio of 1.000000e+05 in 31 cells 
   306  1.4587e-02  5.1774e-07  5.3705e-06  4.2590e-06  8.1532e-06  0:05:36 1694

 turbulent viscosity limited to viscosity ratio of 1.000000e+05 in 30 cells 
   307  1.2219e-02  5.1236e-07  5.3477e-06  4.2435e-06  8.3035e-06  0:10:07 1693

 turbulent viscosity limited to viscosity ratio of 1.000000e+05 in 30 cells 
   308  1.0559e-02  5.0872e-07  5.3252e-06  4.2273e-06  9.2993e-06  0:08:05 1692

 turbulent viscosity limited to viscosity ratio of 1.000000e+05 in 28 cells 

  iter  continuity  x-velocity  y-velocity           k       omega     time/iter
   309  9.1511e-03  5.0489e-07  5.3026e-06  4.2103e-06  7.9735e-06  0:06:28 1691

 turbulent viscosity limited to viscosity ratio of 1.000000e+05 in 28 cells 
   310  8.3755e-03  5.0138e-07  5.2796e-06  4.1931e-06  7.1072e-06  0:10:48 1690

 turbulent viscosity limited to viscosity ratio of 1.000000e+05 in 25 cells 
   311  7.8598e-03  4.9834e-07  5.2565e-06  4.1761e-06  6.6430e-06  0:08:38 1689

 turbulent viscosity limited to viscosity ratio of 1.000000e+05 in 27 cells 
   312  7.0821e-03  4.9519e-07  5.2343e-06  4.1609e-06  6.2524e-06  0:06:54 1688

 turbulent viscosity limited to viscosity ratio of 1.000000e+05 in 28 cells 
   313  6.5089e-03  4.9199e-07  5.2128e-06  4.1452e-06  5.9080e-06  0:11:09 1687

 turbulent viscosity limited to viscosity ratio of 1.000000e+05 in 27 cells 
   314  6.1192e-03  4.8882e-07  5.1910e-06  4.1257e-06  5.2892e-06  0:08:55 1686

 turbulent viscosity limited to viscosity ratio of 1.000000e+05 in 27 cells 
   315  5.7656e-03  4.8580e-07  5.1700e-06  4.1096e-06  5.3177e-06  0:07:07 1685

 turbulent viscosity limited to viscosity ratio of 1.000000e+05 in 27 cells 
   316  5.4094e-03  4.8328e-07  5.1492e-06  4.0957e-06  4.9237e-06  0:05:42 1684

 turbulent viscosity limited to viscosity ratio of 1.000000e+05 in 27 cells 
   317  4.9976e-03  4.8069e-07  5.1269e-06  4.0814e-06  4.7767e-06  0:10:10 1683

 turbulent viscosity limited to viscosity ratio of 1.000000e+05 in 28 cells 
   318  4.5649e-03  4.7750e-07  5.1065e-06  4.0677e-06  4.6697e-06  0:08:08 1682

 turbulent viscosity limited to viscosity ratio of 1.000000e+05 in 28 cells 
   319  4.2757e-03  4.7595e-07  5.0848e-06  4.0547e-06  4.4264e-06  0:06:30 1681

 turbulent viscosity limited to viscosity ratio of 1.000000e+05 in 27 cells 

  iter  continuity  x-velocity  y-velocity           k       omega     time/iter
   320  4.2027e-03  4.7370e-07  5.0639e-06  4.0430e-06  4.3178e-06  0:10:48 1680

 turbulent viscosity limited to viscosity ratio of 1.000000e+05 in 27 cells 
   321  4.2008e-03  4.7097e-07  5.0438e-06  4.0308e-06  4.2906e-06  0:08:38 1679

 turbulent viscosity limited to viscosity ratio of 1.000000e+05 in 25 cells 
   322  4.1901e-03  4.6839e-07  5.0226e-06  4.0194e-06  5.2784e-06  0:06:54 1678

 turbulent viscosity limited to viscosity ratio of 1.000000e+05 in 24 cells 
   323  4.3194e-03  4.6624e-07  5.0018e-06  4.0079e-06  5.7570e-06  0:05:31 1677

 turbulent viscosity limited to viscosity ratio of 1.000000e+05 in 23 cells 
   324  4.0613e-03  4.6387e-07  4.9819e-06  3.9972e-06  5.3114e-06  0:10:00 1676

 turbulent viscosity limited to viscosity ratio of 1.000000e+05 in 23 cells 
   325  3.9306e-03  4.6137e-07  4.9609e-06  3.9861e-06  4.9433e-06  0:08:00 1675

 turbulent viscosity limited to viscosity ratio of 1.000000e+05 in 23 cells 
   326  3.8211e-03  4.5915e-07  4.9402e-06  3.9751e-06  4.7134e-06  0:06:23 1674

 turbulent viscosity limited to viscosity ratio of 1.000000e+05 in 24 cells 
   327  3.6070e-03  4.5721e-07  4.9201e-06  3.9640e-06  4.5952e-06  0:10:41 1673

 turbulent viscosity limited to viscosity ratio of 1.000000e+05 in 23 cells 
   328  3.5011e-03  4.5516e-07  4.9001e-06  3.9532e-06  4.6133e-06  0:08:33 1672

 turbulent viscosity limited to viscosity ratio of 1.000000e+05 in 22 cells 
   329  3.4791e-03  4.5325e-07  4.8804e-06  3.9426e-06  4.5327e-06  0:06:50 1671

 turbulent viscosity limited to viscosity ratio of 1.000000e+05 in 22 cells 
   330  3.5674e-03  4.5086e-07  4.8605e-06  3.9319e-06  4.3170e-06  0:11:02 1670

 turbulent viscosity limited to viscosity ratio of 1.000000e+05 in 21 cells 

  iter  continuity  x-velocity  y-velocity           k       omega     time/iter
   331  3.6944e-03  4.4845e-07  4.8410e-06  3.9214e-06  4.2109e-06  0:08:49 1669

 turbulent viscosity limited to viscosity ratio of 1.000000e+05 in 21 cells 
   332  3.6643e-03  4.4662e-07  4.8215e-06  3.9109e-06  4.1932e-06  0:12:37 1668

 turbulent viscosity limited to viscosity ratio of 1.000000e+05 in 23 cells 
   333  3.5994e-03  4.4511e-07  4.8022e-06  3.9005e-06  4.1367e-06  0:10:05 1667

 turbulent viscosity limited to viscosity ratio of 1.000000e+05 in 23 cells 
   334  3.8036e-03  4.4297e-07  4.7835e-06  3.8909e-06  4.7500e-06  0:08:04 1666

 turbulent viscosity limited to viscosity ratio of 1.000000e+05 in 24 cells 
   335  4.0849e-03  4.4163e-07  4.7639e-06  3.8799e-06  4.9339e-06  0:06:27 1665

 turbulent viscosity limited to viscosity ratio of 1.000000e+05 in 23 cells 
   336  4.3343e-03  4.3977e-07  4.7454e-06  3.8699e-06  4.7302e-06  0:10:42 1664

 turbulent viscosity limited to viscosity ratio of 1.000000e+05 in 25 cells 
   337  4.2111e-03  4.3812e-07  4.7261e-06  3.8601e-06  4.7407e-06  0:08:33 1663

 turbulent viscosity limited to viscosity ratio of 1.000000e+05 in 28 cells 
   338  4.1947e-03  4.3664e-07  4.7079e-06  3.8507e-06  4.2824e-06  0:06:50 1662

 turbulent viscosity limited to viscosity ratio of 1.000000e+05 in 27 cells 
   339  4.1756e-03  4.3581e-07  4.6896e-06  3.8405e-06  3.9608e-06  0:11:00 1661

 turbulent viscosity limited to viscosity ratio of 1.000000e+05 in 26 cells 
   340  3.9163e-03  4.3303e-07  4.6702e-06  3.8297e-06  3.8463e-06  0:08:48 1660

 turbulent viscosity limited to viscosity ratio of 1.000000e+05 in 24 cells 
   341  3.4160e-03  4.2907e-07  4.6494e-06  3.8201e-06  3.8931e-06  0:07:02 1659

 turbulent viscosity limited to viscosity ratio of 1.000000e+05 in 22 cells 

  iter  continuity  x-velocity  y-velocity           k       omega     time/iter
   342  3.3177e-03  4.2682e-07  4.6309e-06  3.8103e-06  4.5373e-06  0:05:37 1658

 turbulent viscosity limited to viscosity ratio of 1.000000e+05 in 21 cells 
   343  3.8661e-03  4.2520e-07  4.6129e-06  3.8006e-06  4.9184e-06  0:10:01 1657

 turbulent viscosity limited to viscosity ratio of 1.000000e+05 in 21 cells 
   344  4.0232e-03  4.2359e-07  4.5947e-06  3.7910e-06  4.6661e-06  0:08:01 1656

 turbulent viscosity limited to viscosity ratio of 1.000000e+05 in 18 cells 
   345  4.2124e-03  4.2105e-07  4.5745e-06  3.7815e-06  4.4655e-06  0:06:24 1655

 turbulent viscosity limited to viscosity ratio of 1.000000e+05 in 18 cells 
   346  3.9110e-03  4.1938e-07  4.5562e-06  3.7724e-06  4.1966e-06  0:10:38 1654

 turbulent viscosity limited to viscosity ratio of 1.000000e+05 in 15 cells 
   347  3.6986e-03  4.1750e-07  4.5386e-06  3.7628e-06  4.1586e-06  0:08:30 1653

 turbulent viscosity limited to viscosity ratio of 1.000000e+05 in 16 cells 
   348  3.4765e-03  4.1483e-07  4.5207e-06  3.7532e-06  4.1480e-06  0:06:48 1652

 turbulent viscosity limited to viscosity ratio of 1.000000e+05 in 16 cells 
   349  3.0219e-03  4.1302e-07  4.5026e-06  3.7443e-06  4.2144e-06  0:10:56 1651

 turbulent viscosity limited to viscosity ratio of 1.000000e+05 in 16 cells 
   350  2.8732e-03  4.1031e-07  4.4846e-06  3.7353e-06  4.1598e-06  0:08:45 1650

 turbulent viscosity limited to viscosity ratio of 1.000000e+05 in 16 cells 
   351  2.9393e-03  4.0899e-07  4.4660e-06  3.7257e-06  3.9851e-06  0:07:00 1649

 turbulent viscosity limited to viscosity ratio of 1.000000e+05 in 16 cells 
   352  3.0607e-03  4.0710e-07  4.4473e-06  3.7168e-06  3.9021e-06  0:05:35 1648

 turbulent viscosity limited to viscosity ratio of 1.000000e+05 in 15 cells 

  iter  continuity  x-velocity  y-velocity           k       omega     time/iter
   353  3.0945e-03  4.0532e-07  4.4294e-06  3.7084e-06  3.8148e-06  0:09:58 1647

 turbulent viscosity limited to viscosity ratio of 1.000000e+05 in 13 cells 
   354  2.9723e-03  4.0325e-07  4.4108e-06  3.6992e-06  3.7338e-06  0:07:58 1646

 turbulent viscosity limited to viscosity ratio of 1.000000e+05 in 13 cells 
   355  2.8832e-03  4.0154e-07  4.3937e-06  3.6895e-06  3.6287e-06  0:06:22 1645

 turbulent viscosity limited to viscosity ratio of 1.000000e+05 in 12 cells 
   356  2.6973e-03  3.9936e-07  4.3763e-06  3.6803e-06  3.5727e-06  0:10:34 1644

 turbulent viscosity limited to viscosity ratio of 1.000000e+05 in 12 cells 
   357  2.4074e-03  3.9761e-07  4.3584e-06  3.6713e-06  4.0725e-06  0:08:27 1643

 turbulent viscosity limited to viscosity ratio of 1.000000e+05 in 10 cells 
   358  2.4261e-03  3.9590e-07  4.3407e-06  3.6623e-06  4.1554e-06  0:06:45 1642

 turbulent viscosity limited to viscosity ratio of 1.000000e+05 in 10 cells 
   359  2.4535e-03  3.9429e-07  4.3228e-06  3.6534e-06  3.9220e-06  0:10:52 1641

 turbulent viscosity limited to viscosity ratio of 1.000000e+05 in 10 cells 
   360  2.4750e-03  3.9309e-07  4.3061e-06  3.6447e-06  3.6785e-06  0:08:42 1640

 turbulent viscosity limited to viscosity ratio of 1.000000e+05 in 9 cells 
   361  2.4182e-03  3.9077e-07  4.2882e-06  3.6363e-06  3.5600e-06  0:06:57 1639

 turbulent viscosity limited to viscosity ratio of 1.000000e+05 in 8 cells 
   362  2.3762e-03  3.8944e-07  4.2720e-06  3.6280e-06  3.5725e-06  0:05:33 1638

 turbulent viscosity limited to viscosity ratio of 1.000000e+05 in 9 cells 
   363  2.3789e-03  3.8732e-07  4.2550e-06  3.6195e-06  3.6374e-06  0:09:54 1637

 turbulent viscosity limited to viscosity ratio of 1.000000e+05 in 10 cells 

  iter  continuity  x-velocity  y-velocity           k       omega     time/iter
   364  2.3236e-03  3.8540e-07  4.2379e-06  3.6107e-06  3.4728e-06  0:07:55 1636

 turbulent viscosity limited to viscosity ratio of 1.000000e+05 in 8 cells 
   365  2.2820e-03  3.8534e-07  4.2215e-06  3.6041e-06  3.4250e-06  0:06:20 1635

 turbulent viscosity limited to viscosity ratio of 1.000000e+05 in 7 cells 
   366  2.2553e-03  3.8280e-07  4.2040e-06  3.5929e-06  3.4079e-06  0:10:30 1634

 turbulent viscosity limited to viscosity ratio of 1.000000e+05 in 7 cells 
   367  2.1206e-03  3.8090e-07  4.1869e-06  3.5847e-06  3.2789e-06  0:08:24 1633

 turbulent viscosity limited to viscosity ratio of 1.000000e+05 in 8 cells 
   368  1.9964e-03  3.7789e-07  4.1701e-06  3.5757e-06  3.1989e-06  0:06:43 1632

 turbulent viscosity limited to viscosity ratio of 1.000000e+05 in 8 cells 
   369  1.9125e-03  3.7588e-07  4.1533e-06  3.5674e-06  3.1379e-06  0:05:22 1631

 turbulent viscosity limited to viscosity ratio of 1.000000e+05 in 8 cells 
   370  1.8908e-03  3.7432e-07  4.1370e-06  3.5602e-06  3.1195e-06  0:09:44 1630

 turbulent viscosity limited to viscosity ratio of 1.000000e+05 in 10 cells 
   371  1.8373e-03  3.7223e-07  4.1203e-06  3.5510e-06  3.1881e-06  0:07:47 1629

 turbulent viscosity limited to viscosity ratio of 1.000000e+05 in 9 cells 
   372  1.8476e-03  3.7041e-07  4.1045e-06  3.5428e-06  3.1634e-06  0:06:13 1628

 turbulent viscosity limited to viscosity ratio of 1.000000e+05 in 8 cells 
   373  1.8125e-03  3.6867e-07  4.0880e-06  3.5349e-06  3.1971e-06  0:10:24 1627

 turbulent viscosity limited to viscosity ratio of 1.000000e+05 in 7 cells 
   374  1.8166e-03  3.6702e-07  4.0717e-06  3.5272e-06  3.1052e-06  0:08:19 1626

 turbulent viscosity limited to viscosity ratio of 1.000000e+05 in 6 cells 

  iter  continuity  x-velocity  y-velocity           k       omega     time/iter
   375  1.7297e-03  3.6514e-07  4.0554e-06  3.5192e-06  3.0628e-06  0:06:39 1625

 turbulent viscosity limited to viscosity ratio of 1.000000e+05 in 7 cells 
   376  1.6576e-03  3.6331e-07  4.0391e-06  3.5112e-06  3.0560e-06  0:05:19 1624

 turbulent viscosity limited to viscosity ratio of 1.000000e+05 in 6 cells 
   377  1.5564e-03  3.6158e-07  4.0229e-06  3.5035e-06  3.0309e-06  0:09:39 1623

 turbulent viscosity limited to viscosity ratio of 1.000000e+05 in 4 cells 
   378  1.4754e-03  3.5984e-07  4.0069e-06  3.4959e-06  2.9889e-06  0:07:43 1622

 turbulent viscosity limited to viscosity ratio of 1.000000e+05 in 5 cells 
   379  1.5754e-03  3.5820e-07  3.9909e-06  3.4881e-06  2.9135e-06  0:11:35 1621

 turbulent viscosity limited to viscosity ratio of 1.000000e+05 in 5 cells 
   380  1.4944e-03  3.5641e-07  3.9749e-06  3.4804e-06  2.8494e-06  0:09:15 1620

 turbulent viscosity limited to viscosity ratio of 1.000000e+05 in 3 cells 
   381  1.4741e-03  3.5503e-07  3.9593e-06  3.4727e-06  2.8458e-06  0:07:24 1619

 turbulent viscosity limited to viscosity ratio of 1.000000e+05 in 4 cells 
   382  1.4583e-03  3.5334e-07  3.9438e-06  3.4651e-06  2.7670e-06  0:11:19 1618

 turbulent viscosity limited to viscosity ratio of 1.000000e+05 in 6 cells 
   383  1.4625e-03  3.5176e-07  3.9283e-06  3.4577e-06  2.7378e-06  0:09:03 1617

 turbulent viscosity limited to viscosity ratio of 1.000000e+05 in 6 cells 
   384  1.4850e-03  3.5027e-07  3.9129e-06  3.4502e-06  2.7773e-06  0:07:14 1616

 turbulent viscosity limited to viscosity ratio of 1.000000e+05 in 6 cells 
   385  1.4734e-03  3.4862e-07  3.8976e-06  3.4429e-06  2.7468e-06  0:05:47 1615

 turbulent viscosity limited to viscosity ratio of 1.000000e+05 in 6 cells 

  iter  continuity  x-velocity  y-velocity           k       omega     time/iter
   386  1.4047e-03  3.4686e-07  3.8824e-06  3.4357e-06  2.7426e-06  0:10:00 1614

 turbulent viscosity limited to viscosity ratio of 1.000000e+05 in 6 cells 
   387  1.3315e-03  3.4518e-07  3.8671e-06  3.4284e-06  2.7628e-06  0:08:00 1613

 turbulent viscosity limited to viscosity ratio of 1.000000e+05 in 5 cells 
   388  1.2695e-03  3.4345e-07  3.8520e-06  3.4211e-06  2.7535e-06  0:06:24 1612

 turbulent viscosity limited to viscosity ratio of 1.000000e+05 in 6 cells 
   389  1.2017e-03  3.4186e-07  3.8369e-06  3.4140e-06  2.7223e-06  0:10:29 1611

 turbulent viscosity limited to viscosity ratio of 1.000000e+05 in 3 cells 
   390  1.1924e-03  3.4057e-07  3.8220e-06  3.4072e-06  2.7538e-06  0:08:23 1610

 turbulent viscosity limited to viscosity ratio of 1.000000e+05 in 2 cells 
   391  1.1511e-03  3.3879e-07  3.8071e-06  3.3997e-06  2.7419e-06  0:06:42 1609

 turbulent viscosity limited to viscosity ratio of 1.000000e+05 in 2 cells 
   392  1.1124e-03  3.3721e-07  3.7923e-06  3.3927e-06  2.7397e-06  0:05:21 1608

 turbulent viscosity limited to viscosity ratio of 1.000000e+05 in 2 cells 
   393  1.1014e-03  3.3597e-07  3.7776e-06  3.3861e-06  2.7329e-06  0:09:38 1607

 turbulent viscosity limited to viscosity ratio of 1.000000e+05 in 1 cells 
   394  1.1229e-03  3.3426e-07  3.7630e-06  3.3787e-06  2.7347e-06  0:07:42 1606

 turbulent viscosity limited to viscosity ratio of 1.000000e+05 in 1 cells 
   395  1.1086e-03  3.3274e-07  3.7483e-06  3.3717e-06  2.7645e-06  0:06:10 1605
   396  1.0850e-03  3.3128e-07  3.7338e-06  3.3648e-06  2.7665e-06  0:10:16 1604

  iter  continuity  x-velocity  y-velocity           k       omega     time/iter
   397  1.1120e-03  3.2981e-07  3.7194e-06  3.3579e-06  2.7448e-06  0:08:13 1603
   398  1.1573e-03  3.2839e-07  3.7050e-06  3.3511e-06  2.7118e-06  0:06:34 1602
   399  1.1454e-03  3.2693e-07  3.6907e-06  3.3443e-06  2.6740e-06  0:10:35 1601
   400  1.0996e-03  3.2545e-07  3.6764e-06  3.3375e-06  2.6363e-06  0:08:28 1600
   401  1.0488e-03  3.2397e-07  3.6622e-06  3.3307e-06  2.6121e-06  0:06:46 1599
   402  9.9683e-04  3.2255e-07  3.6482e-06  3.3240e-06  2.4936e-06  0:05:25 1598
   403  9.4608e-04  3.2107e-07  3.6341e-06  3.3173e-06  2.4590e-06  0:09:39 1597

 turbulent viscosity limited to viscosity ratio of 1.000000e+05 in 1 cells 
   404  8.9529e-04  3.1968e-07  3.6201e-06  3.3107e-06  2.4101e-06  0:07:43 1596

 turbulent viscosity limited to viscosity ratio of 1.000000e+05 in 1 cells 
   405  8.7327e-04  3.1828e-07  3.6062e-06  3.3041e-06  2.3862e-06  0:06:10 1595

 turbulent viscosity limited to viscosity ratio of 1.000000e+05 in 1 cells 
   406  8.5050e-04  3.1689e-07  3.5924e-06  3.2975e-06  2.2980e-06  0:10:15 1594
   407  8.2666e-04  3.1553e-07  3.5786e-06  3.2908e-06  2.2555e-06  0:08:11 1593

  iter  continuity  x-velocity  y-velocity           k       omega     time/iter
   408  8.0422e-04  3.1420e-07  3.5649e-06  3.2842e-06  2.1969e-06  0:06:33 1592
   409  7.8862e-04  3.1286e-07  3.5513e-06  3.2776e-06  2.1806e-06  0:05:14 1591
   410  7.7248e-04  3.1152e-07  3.5377e-06  3.2710e-06  2.1496e-06  0:09:29 1590
   411  7.7046e-04  3.1021e-07  3.5242e-06  3.2645e-06  2.1386e-06  0:07:35 1589
   412  7.7348e-04  3.0889e-07  3.5108e-06  3.2580e-06  2.1166e-06  0:06:04 1588
   413  7.7211e-04  3.0760e-07  3.4975e-06  3.2515e-06  2.1104e-06  0:10:08 1587
   414  7.6693e-04  3.0630e-07  3.4842e-06  3.2451e-06  2.0920e-06  0:08:06 1586

 turbulent viscosity limited to viscosity ratio of 1.000000e+05 in 1 cells 
   415  7.5774e-04  3.0501e-07  3.4709e-06  3.2387e-06  2.0786e-06  0:06:29 1585

 turbulent viscosity limited to viscosity ratio of 1.000000e+05 in 1 cells 
   416  7.5289e-04  3.0374e-07  3.4578e-06  3.2324e-06  2.0525e-06  0:10:28 1584

 turbulent viscosity limited to viscosity ratio of 1.000000e+05 in 2 cells 
   417  7.5476e-04  3.0250e-07  3.4447e-06  3.2261e-06  2.0421e-06  0:08:22 1583

 turbulent viscosity limited to viscosity ratio of 1.000000e+05 in 2 cells 
   418  7.5543e-04  3.0123e-07  3.4316e-06  3.2198e-06  2.0237e-06  0:06:41 1582

 turbulent viscosity limited to viscosity ratio of 1.000000e+05 in 1 cells 

  iter  continuity  x-velocity  y-velocity           k       omega     time/iter
   419  7.4601e-04  3.0000e-07  3.4186e-06  3.2135e-06  2.0126e-06  0:05:21 1581

 turbulent viscosity limited to viscosity ratio of 1.000000e+05 in 1 cells 
   420  7.4249e-04  2.9876e-07  3.4057e-06  3.2073e-06  1.9998e-06  0:09:32 1580

 turbulent viscosity limited to viscosity ratio of 1.000000e+05 in 1 cells 
   421  7.4489e-04  2.9754e-07  3.3928e-06  3.2011e-06  1.9903e-06  0:07:38 1579

 turbulent viscosity limited to viscosity ratio of 1.000000e+05 in 1 cells 
   422  7.4298e-04  2.9632e-07  3.3800e-06  3.1950e-06  1.9811e-06  0:06:06 1578

 turbulent viscosity limited to viscosity ratio of 1.000000e+05 in 1 cells 
   423  7.3757e-04  2.9509e-07  3.3673e-06  3.1889e-06  1.9755e-06  0:10:08 1577

 turbulent viscosity limited to viscosity ratio of 1.000000e+05 in 1 cells 
   424  7.2751e-04  2.9388e-07  3.3546e-06  3.1828e-06  1.9705e-06  0:08:06 1576

 turbulent viscosity limited to viscosity ratio of 1.000000e+05 in 2 cells 
   425  7.1909e-04  2.9268e-07  3.3420e-06  3.1767e-06  1.9726e-06  0:06:29 1575

 turbulent viscosity limited to viscosity ratio of 1.000000e+05 in 2 cells 
   426  7.1108e-04  2.9150e-07  3.3294e-06  3.1707e-06  1.9765e-06  0:10:25 1574

 turbulent viscosity limited to viscosity ratio of 1.000000e+05 in 2 cells 
   427  7.0058e-04  2.9033e-07  3.3169e-06  3.1647e-06  1.9839e-06  0:08:20 1573
   428  6.9388e-04  2.8917e-07  3.3044e-06  3.1588e-06  1.9901e-06  0:06:40 1572
   429  6.9041e-04  2.8803e-07  3.2920e-06  3.1528e-06  1.9567e-06  0:10:34 1571

  iter  continuity  x-velocity  y-velocity           k       omega     time/iter
   430  6.8678e-04  2.8690e-07  3.2797e-06  3.1470e-06  1.9613e-06  0:08:27 1570
   431  6.8208e-04  2.8578e-07  3.2674e-06  3.1411e-06  1.9353e-06  0:06:45 1569
   432  6.7821e-04  2.8467e-07  3.2552e-06  3.1352e-06  1.9414e-06  0:10:38 1568
   433  6.7407e-04  2.8357e-07  3.2430e-06  3.1294e-06  1.9289e-06  0:08:30 1567
[...]
  1823  3.8201e-05  5.0445e-08  2.1617e-07  1.4802e-06  2.3937e-07  0:01:09  177
  1824  3.8092e-05  5.0420e-08  2.1595e-07  1.4800e-06  2.3918e-07  0:00:55  176
  1825  3.7969e-05  5.0395e-08  2.1574e-07  1.4797e-06  2.3923e-07  0:00:44  175
  1826  3.7883e-05  5.0370e-08  2.1552e-07  1.4795e-06  2.3905e-07  0:01:10  174

  iter  continuity  x-velocity  y-velocity           k       omega     time/iter
  1827  3.7814e-05  5.0346e-08  2.1530e-07  1.4792e-06  2.3910e-07  0:00:55  173
  1828  3.7755e-05  5.0321e-08  2.1509e-07  1.4790e-06  2.3892e-07  0:00:44  172
  1829  3.7688e-05  5.0296e-08  2.1487e-07  1.4787e-06  2.3897e-07  0:01:09  171
  1830  3.7665e-05  5.0271e-08  2.1466e-07  1.4785e-06  2.3881e-07  0:00:55  170
  1831  3.7576e-05  5.0247e-08  2.1444e-07  1.4782e-06  2.3884e-07  0:00:44  169
  1832  3.7572e-05  5.0222e-08  2.1423e-07  1.4780e-06  2.3870e-07  0:00:35  168
  1833  3.7500e-05  5.0198e-08  2.1401e-07  1.4777e-06  2.3873e-07  0:01:01  167
  1834  3.7488e-05  5.0173e-08  2.1380e-07  1.4775e-06  2.3861e-07  0:00:49  166
  1835  3.7429e-05  5.0148e-08  2.1359e-07  1.4773e-06  2.3863e-07  0:00:39  165
  1836  3.7412e-05  5.0124e-08  2.1337e-07  1.4770e-06  2.3852e-07  0:01:04  164
  1837  3.7369e-05  5.0099e-08  2.1316e-07  1.4768e-06  2.3852e-07  0:00:50  163

  iter  continuity  x-velocity  y-velocity           k       omega     time/iter
  1838  3.7352e-05  5.0075e-08  2.1295e-07  1.4765e-06  2.3844e-07  0:00:40  162
  1839  3.7333e-05  5.0050e-08  2.1274e-07  1.4763e-06  2.3842e-07  0:01:04  161
  1840  3.7337e-05  5.0026e-08  2.1253e-07  1.4760e-06  2.3837e-07  0:00:51  160
  1841  3.7314e-05  5.0002e-08  2.1231e-07  1.4758e-06  2.3834e-07  0:00:41  159
  1842  3.7309e-05  4.9977e-08  2.1210e-07  1.4755e-06  2.3830e-07  0:00:32  158
  1843  3.7304e-05  4.9953e-08  2.1189e-07  1.4753e-06  2.3827e-07  0:00:57  157
  1844  3.7294e-05  4.9929e-08  2.1168e-07  1.4751e-06  2.3823e-07  0:00:45  156
  1845  3.7290e-05  4.9905e-08  2.1147e-07  1.4748e-06  2.3821e-07  0:00:36  155
  1846  3.7231e-05  4.9881e-08  2.1126e-07  1.4746e-06  2.3816e-07  0:00:59  154
  1847  3.7193e-05  4.9856e-08  2.1105e-07  1.4743e-06  2.3815e-07  0:00:47  153
  1848  3.7150e-05  4.9832e-08  2.1084e-07  1.4741e-06  2.3808e-07  0:00:38  152

  iter  continuity  x-velocity  y-velocity           k       omega     time/iter
  1849  3.7107e-05  4.9808e-08  2.1063e-07  1.4738e-06  2.3809e-07  0:01:00  151
  1850  3.6996e-05  4.9784e-08  2.1043e-07  1.4736e-06  2.3796e-07  0:00:48  150
  1851  3.6902e-05  4.9760e-08  2.1022e-07  1.4734e-06  2.3799e-07  0:00:38  149
  1852  3.6826e-05  4.9736e-08  2.1001e-07  1.4731e-06  2.3784e-07  0:01:00  148
  1853  3.6819e-05  4.9712e-08  2.0980e-07  1.4729e-06  2.3790e-07  0:00:47  147
  1854  3.6776e-05  4.9688e-08  2.0960e-07  1.4726e-06  2.3774e-07  0:00:38  146
  1855  3.6773e-05  4.9665e-08  2.0939e-07  1.4724e-06  2.3780e-07  0:00:59  145
  1856  3.6721e-05  4.9641e-08  2.0918e-07  1.4721e-06  2.3764e-07  0:00:47  144
  1857  3.6730e-05  4.9617e-08  2.0898e-07  1.4719e-06  2.3770e-07  0:00:37  143
  1858  3.6668e-05  4.9593e-08  2.0877e-07  1.4717e-06  2.3753e-07  0:00:58  142
  1859  3.6659e-05  4.9569e-08  2.0857e-07  1.4714e-06  2.3759e-07  0:00:46  141

  iter  continuity  x-velocity  y-velocity           k       omega     time/iter
  1860  3.6578e-05  4.9546e-08  2.0836e-07  1.4712e-06  2.3741e-07  0:00:37  140
  1861  3.6603e-05  4.9522e-08  2.0816e-07  1.4709e-06  2.3746e-07  0:00:57  139
  1862  3.6520e-05  4.9498e-08  2.0795e-07  1.4707e-06  2.3730e-07  0:00:45  138
  1863  3.6548e-05  4.9475e-08  2.0775e-07  1.4705e-06  2.3733e-07  0:00:36  137
  1864  3.6498e-05  4.9451e-08  2.0754e-07  1.4702e-06  2.3717e-07  0:00:56  136
  1865  3.6535e-05  4.9427e-08  2.0734e-07  1.4700e-06  2.3715e-07  0:00:44  135
  1866  3.6480e-05  4.9404e-08  2.0714e-07  1.4697e-06  2.3700e-07  0:00:35  134
  1867  3.6505e-05  4.9380e-08  2.0693e-07  1.4695e-06  2.3697e-07  0:00:28  133
  1868  3.6439e-05  4.9357e-08  2.0673e-07  1.4693e-06  2.3682e-07  0:00:49  132
  1869  3.6456e-05  4.9333e-08  2.0653e-07  1.4690e-06  2.3679e-07  0:00:39  131
  1870  3.6393e-05  4.9310e-08  2.0633e-07  1.4688e-06  2.3665e-07  0:00:31  130

  iter  continuity  x-velocity  y-velocity           k       omega     time/iter
  1871  3.6391e-05  4.9287e-08  2.0613e-07  1.4685e-06  2.3661e-07  0:00:50  129
  1872  3.6357e-05  4.9264e-08  2.0593e-07  1.4683e-06  2.3648e-07  0:00:40  128
  1873  3.6381e-05  4.9240e-08  2.0572e-07  1.4681e-06  2.3644e-07  0:00:32  127
  1874  3.6330e-05  4.9217e-08  2.0552e-07  1.4678e-06  2.3633e-07  0:00:50  126
  1875  3.6335e-05  4.9194e-08  2.0532e-07  1.4676e-06  2.3628e-07  0:00:40  125
  1876  3.6222e-05  4.9171e-08  2.0512e-07  1.4673e-06  2.3617e-07  0:00:32  124
  1877  3.6194e-05  4.9148e-08  2.0492e-07  1.4671e-06  2.3612e-07  0:00:50  123
  1878  3.6136e-05  4.9125e-08  2.0472e-07  1.4669e-06  2.3601e-07  0:00:39  122
  1879  3.6136e-05  4.9102e-08  2.0453e-07  1.4666e-06  2.3596e-07  0:00:31  121
  1880  3.6072e-05  4.9079e-08  2.0433e-07  1.4664e-06  2.3585e-07  0:00:25  120
  1881  3.6074e-05  4.9056e-08  2.0413e-07  1.4662e-06  2.3580e-07  0:00:44  119

  iter  continuity  x-velocity  y-velocity           k       omega     time/iter
  1882  3.6023e-05  4.9033e-08  2.0393e-07  1.4659e-06  2.3569e-07  0:00:35  118
  1883  3.6029e-05  4.9010e-08  2.0373e-07  1.4657e-06  2.3563e-07  0:00:27  117
  1884  3.5990e-05  4.8987e-08  2.0354e-07  1.4654e-06  2.3553e-07  0:00:45  116
  1885  3.5994e-05  4.8964e-08  2.0334e-07  1.4652e-06  2.3546e-07  0:00:36  115
  1886  3.5956e-05  4.8941e-08  2.0314e-07  1.4650e-06  2.3536e-07  0:00:28  114
  1887  3.5954e-05  4.8919e-08  2.0295e-07  1.4647e-06  2.3529e-07  0:00:45  113
  1888  3.5920e-05  4.8896e-08  2.0275e-07  1.4645e-06  2.3519e-07  0:00:36  112
  1889  3.5913e-05  4.8873e-08  2.0255e-07  1.4643e-06  2.3512e-07  0:00:28  111
  1890  3.5884e-05  4.8851e-08  2.0236e-07  1.4640e-06  2.3502e-07  0:00:22  110
  1891  3.5867e-05  4.8828e-08  2.0216e-07  1.4638e-06  2.3495e-07  0:00:40  109
  1892  3.5843e-05  4.8806e-08  2.0197e-07  1.4636e-06  2.3486e-07  0:00:31  108

  iter  continuity  x-velocity  y-velocity           k       omega     time/iter
  1893  3.5848e-05  4.8783e-08  2.0177e-07  1.4633e-06  2.3478e-07  0:00:25  107
  1894  3.5854e-05  4.8760e-08  2.0158e-07  1.4631e-06  2.3469e-07  0:00:41  106
  1895  3.5845e-05  4.8738e-08  2.0138e-07  1.4628e-06  2.3461e-07  0:00:32  105
  1896  3.5834e-05  4.8716e-08  2.0119e-07  1.4626e-06  2.3452e-07  0:00:26  104
  1897  3.5794e-05  4.8693e-08  2.0100e-07  1.4624e-06  2.3444e-07  0:00:41  103
  1898  3.5770e-05  4.8671e-08  2.0081e-07  1.4621e-06  2.3435e-07  0:00:32  102
  1899  3.5742e-05  4.8649e-08  2.0061e-07  1.4619e-06  2.3427e-07  0:00:46  101
  1900  3.5748e-05  4.8626e-08  2.0042e-07  1.4617e-06  2.3419e-07  0:00:36  100
  1901  3.5732e-05  4.8604e-08  2.0023e-07  1.4614e-06  2.3410e-07  0:00:29   99
  1902  3.5718e-05  4.8582e-08  2.0004e-07  1.4612e-06  2.3402e-07  0:00:23   98
  1903  3.5665e-05  4.8560e-08  1.9984e-07  1.4610e-06  2.3393e-07  0:00:18   97

  iter  continuity  x-velocity  y-velocity           k       omega     time/iter
  1904  3.5620e-05  4.8538e-08  1.9965e-07  1.4607e-06  2.3385e-07  0:00:33   96
  1905  3.5550e-05  4.8515e-08  1.9946e-07  1.4605e-06  2.3377e-07  0:00:27   95
  1906  3.5481e-05  4.8493e-08  1.9927e-07  1.4603e-06  2.3368e-07  0:00:21   94
  1907  3.5393e-05  4.8471e-08  1.9908e-07  1.4600e-06  2.3360e-07  0:00:17   93
  1908  3.5353e-05  4.8449e-08  1.9889e-07  1.4598e-06  2.3352e-07  0:00:13   92
  1909  3.5273e-05  4.8427e-08  1.9870e-07  1.4596e-06  2.3344e-07  0:00:10   91
  1910  3.5234e-05  4.8406e-08  1.9851e-07  1.4593e-06  2.3335e-07  0:00:26   90
  1911  3.5165e-05  4.8384e-08  1.9832e-07  1.4591e-06  2.3329e-07  0:00:21   89
  1912  3.5151e-05  4.8362e-08  1.9813e-07  1.4589e-06  2.3320e-07  0:00:16   88
  1913  3.5095e-05  4.8340e-08  1.9795e-07  1.4586e-06  2.3313e-07  0:00:13   87
  1914  3.5091e-05  4.8318e-08  1.9776e-07  1.4584e-06  2.3305e-07  0:00:10   86

  iter  continuity  x-velocity  y-velocity           k       omega     time/iter
  1915  3.5040e-05  4.8296e-08  1.9757e-07  1.4582e-06  2.3299e-07  0:00:08   85
  1916  3.5040e-05  4.8275e-08  1.9738e-07  1.4579e-06  2.3289e-07  0:00:23   84
  1917  3.4986e-05  4.8253e-08  1.9719e-07  1.4577e-06  2.3283e-07  0:00:18   83
  1918  3.4987e-05  4.8231e-08  1.9701e-07  1.4575e-06  2.3273e-07  0:00:15   82
  1919  3.4933e-05  4.8210e-08  1.9682e-07  1.4572e-06  2.3267e-07  0:00:11   81
  1920  3.4937e-05  4.8188e-08  1.9663e-07  1.4570e-06  2.3257e-07  0:00:09   80
  1921  3.4876e-05  4.8166e-08  1.9645e-07  1.4568e-06  2.3250e-07  0:00:07   79
  1922  3.4800e-05  4.8145e-08  1.9626e-07  1.4565e-06  2.3240e-07  0:00:21   78
  1923  3.4683e-05  4.8123e-08  1.9608e-07  1.4563e-06  2.3234e-07  0:00:17   77
  1924  3.4581e-05  4.8102e-08  1.9589e-07  1.4561e-06  2.3224e-07  0:00:13   76
  1925  3.4411e-05  4.8080e-08  1.9571e-07  1.4559e-06  2.3219e-07  0:00:10   75

  iter  continuity  x-velocity  y-velocity           k       omega     time/iter
  1926  3.4375e-05  4.8059e-08  1.9552e-07  1.4556e-06  2.3208e-07  0:00:08   74
  1927  3.4237e-05  4.8037e-08  1.9534e-07  1.4554e-06  2.3205e-07  0:00:07   73
  1928  3.4162e-05  4.8015e-08  1.9515e-07  1.4552e-06  2.3194e-07  0:00:20   72
  1929  3.4045e-05  4.7993e-08  1.9497e-07  1.4549e-06  2.3191e-07  0:00:15   71
  1930  3.4021e-05  4.7971e-08  1.9478e-07  1.4547e-06  2.3180e-07  0:00:12   70
  1931  3.3935e-05  4.7949e-08  1.9460e-07  1.4545e-06  2.3178e-07  0:00:10   69
  1932  3.3925e-05  4.7927e-08  1.9442e-07  1.4542e-06  2.3167e-07  0:00:08   68
  1933  3.3847e-05  4.7905e-08  1.9423e-07  1.4540e-06  2.3164e-07  0:00:06   67
  1934  3.3801e-05  4.7883e-08  1.9405e-07  1.4538e-06  2.3153e-07  0:00:18   66
  1935  3.3755e-05  4.7861e-08  1.9387e-07  1.4536e-06  2.3151e-07  0:00:14   65
  1936  3.3751e-05  4.7839e-08  1.9369e-07  1.4533e-06  2.3140e-07  0:00:11   64

  iter  continuity  x-velocity  y-velocity           k       omega     time/iter
  1937  3.3677e-05  4.7817e-08  1.9350e-07  1.4531e-06  2.3138e-07  0:00:09   63
  1938  3.3687e-05  4.7794e-08  1.9332e-07  1.4529e-06  2.3127e-07  0:00:07   62
  1939  3.3565e-05  4.7772e-08  1.9314e-07  1.4526e-06  2.3125e-07  0:00:05   61
  1940  3.3546e-05  4.7750e-08  1.9296e-07  1.4524e-06  2.3114e-07  0:00:16   60
  1941  3.3489e-05  4.7727e-08  1.9278e-07  1.4522e-06  2.3113e-07  0:00:13   59
  1942  3.3493e-05  4.7705e-08  1.9259e-07  1.4520e-06  2.3101e-07  0:00:10   58
  1943  3.3438e-05  4.7683e-08  1.9241e-07  1.4517e-06  2.3100e-07  0:00:08   57
  1944  3.3426e-05  4.7661e-08  1.9223e-07  1.4515e-06  2.3089e-07  0:00:17   56
  1945  3.3366e-05  4.7639e-08  1.9205e-07  1.4513e-06  2.3089e-07  0:00:14   55
  1946  3.3365e-05  4.7617e-08  1.9187e-07  1.4510e-06  2.3077e-07  0:00:11   54
  1947  3.3323e-05  4.7595e-08  1.9169e-07  1.4508e-06  2.3077e-07  0:00:08   53

  iter  continuity  x-velocity  y-velocity           k       omega     time/iter
  1948  3.3331e-05  4.7574e-08  1.9151e-07  1.4506e-06  2.3067e-07  0:00:07   52
  1949  3.3298e-05  4.7552e-08  1.9134e-07  1.4504e-06  2.3067e-07  0:00:05   51
  1950  3.3306e-05  4.7530e-08  1.9116e-07  1.4501e-06  2.3057e-07  0:00:14   50
  1951  3.3279e-05  4.7509e-08  1.9098e-07  1.4499e-06  2.3057e-07  0:00:11   49
  1952  3.3279e-05  4.7487e-08  1.9080e-07  1.4497e-06  2.3049e-07  0:00:09   48
  1953  3.3248e-05  4.7466e-08  1.9062e-07  1.4494e-06  2.3049e-07  0:00:07   47
  1954  3.3276e-05  4.7445e-08  1.9045e-07  1.4492e-06  2.3041e-07  0:00:05   46
  1955  3.3254e-05  4.7423e-08  1.9027e-07  1.4490e-06  2.3041e-07  0:00:13   45
  1956  3.3260e-05  4.7402e-08  1.9009e-07  1.4488e-06  2.3034e-07  0:00:10   44
  1957  3.3230e-05  4.7381e-08  1.8992e-07  1.4485e-06  2.3033e-07  0:00:08   43
  1958  3.3238e-05  4.7360e-08  1.8974e-07  1.4483e-06  2.3026e-07  0:00:06   42

  iter  continuity  x-velocity  y-velocity           k       omega     time/iter
  1959  3.3213e-05  4.7339e-08  1.8956e-07  1.4481e-06  2.3021e-07  0:00:05   41
  1960  3.3216e-05  4.7318e-08  1.8939e-07  1.4479e-06  2.3010e-07  0:00:04   40
  1961  3.3179e-05  4.7297e-08  1.8921e-07  1.4476e-06  2.3004e-07  0:00:11   39
  1962  3.3173e-05  4.7276e-08  1.8904e-07  1.4474e-06  2.2996e-07  0:00:08   38
  1963  3.3132e-05  4.7255e-08  1.8886e-07  1.4472e-06  2.2990e-07  0:00:07   37
  1964  3.3117e-05  4.7235e-08  1.8869e-07  1.4470e-06  2.2978e-07  0:00:05   36
  1965  3.3081e-05  4.7213e-08  1.8851e-07  1.4467e-06  2.2974e-07  0:00:04   35
  1966  3.3062e-05  4.7193e-08  1.8834e-07  1.4465e-06  2.2966e-07  0:00:03   34
  1967  3.3015e-05  4.7172e-08  1.8817e-07  1.4463e-06  2.2960e-07  0:00:09   33
  1968  3.2980e-05  4.7151e-08  1.8799e-07  1.4461e-06  2.2948e-07  0:00:07   32
  1969  3.2884e-05  4.7130e-08  1.8782e-07  1.4458e-06  2.2945e-07  0:00:05   31

  iter  continuity  x-velocity  y-velocity           k       omega     time/iter
  1970  3.2876e-05  4.7110e-08  1.8765e-07  1.4456e-06  2.2937e-07  0:00:10   30
  1971  3.2859e-05  4.7089e-08  1.8747e-07  1.4454e-06  2.2931e-07  0:00:08   29
  1972  3.2859e-05  4.7069e-08  1.8730e-07  1.4452e-06  2.2921e-07  0:00:06   28
  1973  3.2831e-05  4.7048e-08  1.8713e-07  1.4449e-06  2.2917e-07  0:00:10   27
  1974  3.2850e-05  4.7027e-08  1.8696e-07  1.4447e-06  2.2911e-07  0:00:08   26
  1975  3.2812e-05  4.7006e-08  1.8678e-07  1.4445e-06  2.2906e-07  0:00:06   25
  1976  3.2838e-05  4.6986e-08  1.8661e-07  1.4443e-06  2.2897e-07  0:00:05   24
  1977  3.2774e-05  4.6965e-08  1.8644e-07  1.4440e-06  2.2894e-07  0:00:08   23
  1978  3.2756e-05  4.6945e-08  1.8627e-07  1.4438e-06  2.2889e-07  0:00:06   22
  1979  3.2672e-05  4.6924e-08  1.8610e-07  1.4436e-06  2.2883e-07  0:00:05   21
  1980  3.2668e-05  4.6904e-08  1.8593e-07  1.4434e-06  2.2875e-07  0:00:08   20

  iter  continuity  x-velocity  y-velocity           k       omega     time/iter
  1981  3.2592e-05  4.6883e-08  1.8576e-07  1.4431e-06  2.2869e-07  0:00:06   19
  1982  3.2604e-05  4.6863e-08  1.8559e-07  1.4429e-06  2.2863e-07  0:00:04   18
  1983  3.2528e-05  4.6842e-08  1.8542e-07  1.4427e-06  2.2854e-07  0:00:07   17
  1984  3.2548e-05  4.6822e-08  1.8525e-07  1.4425e-06  2.2844e-07  0:00:05   16
  1985  3.2468e-05  4.6801e-08  1.8508e-07  1.4423e-06  2.2838e-07  0:00:07   15
  1986  3.2480e-05  4.6781e-08  1.8491e-07  1.4420e-06  2.2835e-07  0:00:05   14
  1987  3.2377e-05  4.6760e-08  1.8474e-07  1.4418e-06  2.2829e-07  0:00:04   13
  1988  3.2406e-05  4.6740e-08  1.8458e-07  1.4416e-06  2.2824e-07  0:00:05   12
  1989  3.2314e-05  4.6719e-08  1.8441e-07  1.4414e-06  2.2821e-07  0:00:04   11
  1990  3.2358e-05  4.6699e-08  1.8424e-07  1.4411e-06  2.2820e-07  0:00:03   10
  1991  3.2252e-05  4.6678e-08  1.8407e-07  1.4409e-06  2.2810e-07  0:00:04    9

  iter  continuity  x-velocity  y-velocity           k       omega     time/iter
  1992  3.2304e-05  4.6658e-08  1.8390e-07  1.4407e-06  2.2804e-07  0:00:03    8
  1993  3.2200e-05  4.6637e-08  1.8374e-07  1.4405e-06  2.2795e-07  0:00:02    7
  1994  3.2270e-05  4.6617e-08  1.8357e-07  1.4403e-06  2.2795e-07  0:00:01    6
  1995  3.2178e-05  4.6597e-08  1.8340e-07  1.4400e-06  2.2784e-07  0:00:02    5
  1996  3.2241e-05  4.6577e-08  1.8324e-07  1.4398e-06  2.2781e-07  0:00:01    4
  1997  3.2160e-05  4.6556e-08  1.8307e-07  1.4396e-06  2.2772e-07  0:00:01    3
  1998  3.2252e-05  4.6536e-08  1.8291e-07  1.4394e-06  2.2773e-07  0:00:01    2
  1999  3.2168e-05  4.6516e-08  1.8274e-07  1.4392e-06  2.2761e-07  0:00:00    1
  2000  3.2256e-05  4.6496e-08  1.8257e-07  1.4389e-06  2.2759e-07  0:00:00    0

> 
adjoint/                parallel/               server/
define/                 parametric-study/       solve/
display/                plot/                   surface/
exit                    preferences/            views/
file/                   print-license-usage
mesh/                   report/

> ;create rakes
surface/rake-surface cv_inlet -0.005 -0.065 -0.005 0.065 1000

> surface/rake-surface cv_outlet 1.005 -0.065 1.005 0.065 1000

> surface/rake-surface cv_top -0.005 0.065 1.005 0.065 1000

> surface/rake-surface cv_bottom -0.005 -0.065 1.005 -0.065 1000

> surface/point-surface free-stream -15 0

> 
adjoint/                parallel/               server/
define/                 parametric-study/       solve/
display/                plot/                   surface/
exit                    preferences/            views/
file/                   print-license-usage
mesh/                   report/

> ;export data
file/export/ascii NP_CVinlet_data cv_inlet () no pressure x-velocity y-velocity dx-velocity-dx dx-velocity-dy dy-velocity-dx dy-velocity-dy q no 
Writing "NP_CVinlet_data"...

Writing information to ascii file ...
Done.

ok


Overwrite confirmations (/file/set-batch-options ...)
are on -- will therefore ignore the following journal
Error: invalid command: ok


> file/export/ascii NP_CVoutlet_data cv_outlet () no pressure x-velocity y-velocity dx-velocity-dx dx-velocity-dy dy-velocity-dx dy-velocity-dy q no 
Writing "NP_CVoutlet_data"...

Writing information to ascii file ...
Done.

ok


Overwrite confirmations (/file/set-batch-options ...)
are on -- will therefore ignore the following journal
Error: invalid command: ok


> file/export/ascii NP_CVtop_data cv_top () no pressure x-velocity y-velocity dx-velocity-dx dx-velocity-dy dy-velocity-dx dy-velocity-dy q no 
Writing "NP_CVtop_data"...

Writing information to ascii file ...
Done.

ok


Overwrite confirmations (/file/set-batch-options ...)
are on -- will therefore ignore the following journal
Error: invalid command: ok


> file/export/ascii NP_CVbottom_data cv_bottom () no pressure x-velocity y-velocity dx-velocity-dx dx-velocity-dy dy-velocity-dx dy-velocity-dy q no 
Writing "NP_CVbottom_data"...

Writing information to ascii file ...
Done.

ok


Overwrite confirmations (/file/set-batch-options ...)
are on -- will therefore ignore the following journal
Error: invalid command: ok


> file/export/ascii air_properties free-stream () no density viscosity-lam q no 
Writing "air_properties"...

Writing information to ascii file ...
Done.

ok


Overwrite confirmations (/file/set-batch-options ...)
are on -- will therefore ignore the following journal
Error: invalid command: ok


> 
adjoint/                parallel/               server/
define/                 parametric-study/       solve/
display/                plot/                   surface/
exit                    preferences/            views/
file/                   print-license-usage
mesh/                   report/

> ;flag file to know when simulation is over
file/export/ascii flag_file free-stream () no pressure q no 
Writing "flag_file"...

Writing information to ascii file ...
Done.

ok


Overwrite confirmations (/file/set-batch-options ...)
are on -- will therefore ignore the following journal
Error: invalid command: ok


> 
adjoint/                parallel/               server/
define/                 parametric-study/       solve/
display/                plot/                   surface/
exit                    preferences/            views/
file/                   print-license-usage
mesh/                   report/

> /exit y
(cx-gui-do cx-activate-item "Question*OK")

Posting ANSYS Product Improvement Program performance data 
Done.
Auto-Transcript Stop Time:  19:20:17, 20 Jul 2025 GMT Summer Time 
Total Transcript Time: 15 Minute 11 Second.
