Auto-Transcript Start Time:  21:19:27, 20 Jul 2025 GMT Summer Time 
Current Directory: "C:\Users\V.Chepuri\OneDrive - Cranfield University\irp\pablo\re_200000\AOA_1"

              Welcome to ANSYS Fluent 2024 R2

              Copyright 1987-2024 ANSYS, Inc. All Rights Reserved.
              Unauthorized use, distribution or duplication is prohibited.
              This product is subject to U.S. laws governing export and re-export.
              For full Legal Notice, see documentation.

Build Time: May 13 2024 11:17:42 EST  Build Id: 10192  
 
Connected License Server List:	1055@cclic-2.central.cranfield.ac.uk

*********************************************
Info: Your license enables 4-way parallel execution.
For faster simulations, please start the application with the appropriate parallel options.
*********************************************


     --------------------------------------------------------------
     This is an academic version of ANSYS FLUENT. Usage of this product
     license is limited to the terms and conditions specified in your ANSYS
     license form, additional terms section.
     --------------------------------------------------------------
Host spawning Node 0 on machine "37PCL051" (win64).

-------------------------------------------------------------------------------
ID    Hostname  Core  O.S.         PID    Vendor                          
-------------------------------------------------------------------------------
n0    37PCL051  1/28  Windows-x64  4552   Intel(R) Core(TM) i7-14700      
host  37PCL051        Windows-x64  24540  Intel(R) Core(TM) i7-14700      

MPI Option Selected: intel
-------------------------------------------------------------------------------

Cleanup script file is C:\\Users\\V.Chepuri\\OneDrive - Cranfield University\\irp\\pablo\\re_200000\\AOA_1\\cleanup-fluent-37PCL051-24540.bat

Posting ANSYS Product Improvement Program startup data
Done.

> (cx-gui-do cx-activate-item "Key Behavioral Changes*PanelButtons*PushButton1(OK)")
(cx-gui-do cx-activate-item "MenuBar*ReadSubMenu*Case...")
(cx-gui-do cx-set-file-dialog-entries "Select File" '( "template_medium.cas.h5") "CFF Case Files (*.cas.h5 *.msh.h5 *.MSH.h5 )")
Fast-loading "C:\PROGRA~1\ANSYSI~1\v242\fluent\fluent24.2.0\\addons\afd\lib\hdfio.bin"
Done.

37PCL051 has other FLUENT parallel processes running.                       Process affinity not being set.

Reading from 37PCL051:"C:/Users/V.Chepuri/OneDrive - Cranfield University/irp/pablo/re_200000/AOA_1/template_medium.cas.h5" in NODE0 mode ...
  Reading mesh ...
      181070 cells,     4 cell zones ...
          36824 mixed cells,  zone id: 2
         108032 mixed cells,  zone id: 4
          27008 mixed cells,  zone id: 12
           9206 mixed cells,  zone id: 11
      309160 faces,    14 face zones ...
          65137 2D interior faces,  zone id: 3
         181145 2D interior faces,  zone id: 5
             42 2D velocity-inlet faces,  zone id: 6
             38 2D pressure-outlet faces,  zone id: 7
             40 2D velocity-inlet faces,  zone id: 8
            458 2D interior faces,  zone id: 9
            456 2D interior faces,  zone id: 10
            228 2D parent-face faces,  zone id: 19
            229 2D parent-face faces,  zone id: 18
             20 2D parent-face faces,  zone id: 17
             19 2D parent-face faces,  zone id: 16
             21 2D parent-face faces,  zone id: 15
          45157 2D parent-face faces,  zone id: 14
          16170 2D parent-face faces,  zone id: 13
      102461 nodes,     1 node zone  ...
  Done.


Building...
     mesh
     materials,
     interface,
     domains,
	mixture
     zones,
	outlet
	inlet
	interior-fluid
	interior-porous
	symmetry
	upper
	lower
	fluid
	porous
WARNING: "Smooth" contours can't be displayed when node-values is set to off. Changing the Coloring type to "Banded".
     parallel,
Done.
(cx-use-window-id 51)
(handle-key "??")
(cx-gui-do cx-set-list-tree-selections "NavigationPane*Frame2*Table1*List_Tree2" (list "Setup|Boundary Conditions|Inlet|inlet (velocity-inlet, id=6)"))
(cx-gui-do cx-set-list-tree-selections "NavigationPane*Frame2*Table1*List_Tree2" (list "Setup|Boundary Conditions|Inlet|inlet (velocity-inlet, id=6)"))
(cx-gui-do cx-activate-item "NavigationPane*Frame2*Table1*List_Tree2")
(cx-gui-do cx-set-list-tree-selections "NavigationPane*Frame2*Table1*List_Tree2" (list "Setup|Boundary Conditions|Inlet|inlet (velocity-inlet, id=6)"))
(cx-gui-do cx-activate-tab-index "Velocity Inlet*Frame2*Frame2" 0)
(cx-gui-do cx-activate-tab-index "Velocity Inlet*Frame2*Frame2" 1)
(cx-gui-do cx-activate-tab-index "Velocity Inlet*Frame2*Frame2" 0)
(cx-gui-do cx-activate-tab-index "Velocity Inlet*Frame2*Frame2" 2)
(cx-gui-do cx-activate-tab-index "Velocity Inlet*Frame2*Frame2" 0)
(cx-gui-do cx-activate-tab-index "Velocity Inlet*Frame2*Frame2" 3)
(cx-gui-do cx-activate-tab-index "Velocity Inlet*Frame2*Frame2" 0)
(cx-gui-do cx-activate-tab-index "Velocity Inlet*Frame2*Frame2" 4)
(cx-gui-do cx-activate-tab-index "Velocity Inlet*Frame2*Frame2" 0)
(cx-gui-do cx-activate-tab-index "Velocity Inlet*Frame2*Frame2" 5)
(cx-gui-do cx-activate-tab-index "Velocity Inlet*Frame2*Frame2" 0)
(cx-gui-do cx-activate-tab-index "Velocity Inlet*Frame2*Frame2" 6)
(cx-gui-do cx-activate-tab-index "Velocity Inlet*Frame2*Frame2" 0)
(cx-gui-do cx-activate-tab-index "Velocity Inlet*Frame2*Frame2" 7)
(cx-gui-do cx-activate-tab-index "Velocity Inlet*Frame2*Frame2" 0)
(cx-gui-do cx-activate-tab-index "Velocity Inlet*Frame2*Frame2" 8)
(cx-gui-do cx-activate-tab-index "Velocity Inlet*Frame2*Frame2" 0)
(cx-gui-do cx-set-list-tree-selections "NavigationPane*Frame2*Table1*List_Tree2" (list "Setup|Boundary Conditions|Inlet|symmetry (velocity-inlet, id=8)"))
(cx-gui-do cx-set-list-tree-selections "NavigationPane*Frame2*Table1*List_Tree2" (list "Setup|Boundary Conditions|Inlet|symmetry (velocity-inlet, id=8)"))
(cx-gui-do cx-activate-item "NavigationPane*Frame2*Table1*List_Tree2")
(cx-gui-do cx-set-list-tree-selections "NavigationPane*Frame2*Table1*List_Tree2" (list "Setup|Boundary Conditions|Inlet|symmetry (velocity-inlet, id=8)"))
(cx-gui-do cx-activate-tab-index "Velocity Inlet*Frame2*Frame2" 0)
(cx-gui-do cx-activate-tab-index "Velocity Inlet*Frame2*Frame2" 1)
(cx-gui-do cx-activate-tab-index "Velocity Inlet*Frame2*Frame2" 0)
(cx-gui-do cx-activate-tab-index "Velocity Inlet*Frame2*Frame2" 2)
(cx-gui-do cx-activate-tab-index "Velocity Inlet*Frame2*Frame2" 0)
(cx-gui-do cx-activate-tab-index "Velocity Inlet*Frame2*Frame2" 3)
(cx-gui-do cx-activate-tab-index "Velocity Inlet*Frame2*Frame2" 0)
(cx-gui-do cx-activate-tab-index "Velocity Inlet*Frame2*Frame2" 4)
(cx-gui-do cx-activate-tab-index "Velocity Inlet*Frame2*Frame2" 0)
(cx-gui-do cx-activate-tab-index "Velocity Inlet*Frame2*Frame2" 5)
(cx-gui-do cx-activate-tab-index "Velocity Inlet*Frame2*Frame2" 0)
(cx-gui-do cx-activate-tab-index "Velocity Inlet*Frame2*Frame2" 6)
(cx-gui-do cx-activate-tab-index "Velocity Inlet*Frame2*Frame2" 0)
(cx-gui-do cx-activate-tab-index "Velocity Inlet*Frame2*Frame2" 7)
(cx-gui-do cx-activate-tab-index "Velocity Inlet*Frame2*Frame2" 0)
(cx-gui-do cx-activate-tab-index "Velocity Inlet*Frame2*Frame2" 8)
(cx-gui-do cx-activate-tab-index "Velocity Inlet*Frame2*Frame2" 0)
(cx-gui-do cx-enable-apply-button "Velocity Inlet")
(cx-gui-do cx-set-expression-entry "Velocity Inlet*Frame2*Frame2*Frame1(Momentum)*Table1*Table18*ExpressionEntry1(Y-Velocity)" '("0.01745241" . 0))
(cx-gui-do cx-set-expression-entry "Velocity Inlet*Frame2*Frame2*Frame1(Momentum)*Table1*Table17*ExpressionEntry1(X-Velocity)" '("0.9998477" . 0))
(cx-gui-do cx-set-expression-entry "Velocity Inlet*Frame2*Frame2*Frame1(Momentum)*Table1*Table17*ExpressionEntry1(X-Velocity)" '("0.9976" . 0))
(cx-gui-do cx-enable-apply-button "Velocity Inlet")
(cx-gui-do cx-set-expression-entry "Velocity Inlet*Frame2*Frame2*Frame1(Momentum)*Table1*Table17*ExpressionEntry1(X-Velocity)" '("0.9998477" . 0))
(cx-gui-do cx-set-expression-entry "Velocity Inlet*Frame2*Frame2*Frame1(Momentum)*Table1*Table18*ExpressionEntry1(Y-Velocity)" '("0.01745241" . 0))
(cx-gui-do cx-activate-item "Velocity Inlet*PanelButtons*PushButton1(OK)")
(cx-gui-do cx-activate-item "Velocity Inlet*PanelButtons*PushButton2(Cancel)")
(cx-gui-do cx-activate-item "Velocity Inlet*PanelButtons*PushButton1(OK)")
(cx-gui-do cx-activate-item "Velocity Inlet*PanelButtons*PushButton2(Cancel)")
(cx-gui-do cx-activate-item "MenuBar*WriteSubMenu*Case...")
(cx-gui-do cx-set-file-dialog-entries "Select File" '( "template_medium.cas.h5") "CFF Case Files (*.cas.h5 )")
(cx-gui-do cx-activate-item "Question*OK")

Writing to 37PCL051:"C:/Users/V.Chepuri/OneDrive - Cranfield University/irp/pablo/re_200000/AOA_1/template_medium.cas.h5" in NODE0 mode and compression level 1 ...
Grouping cells for Laplace smoothing ...
      181070 cells,     4 zones ...
      309160 faces,    14 zones ...
      102461 nodes,     1 zone  ...
  Done.
Done.
(cx-gui-do cx-activate-item "MenuBar*ReadSubMenu*Journal...")

Reading journal file C:/Users/V.Chepuri/OneDrive - Cranfield University/irp/pablo/re_200000/AOA_1/template.jou...

> ;change to correct dir

file/read-case template_medium.cas.h5 
37PCL051 has other FLUENT parallel processes running.                       Process affinity not being set.

       Clearing partially read grid.

Reading from 37PCL051:"C:\Users\V.Chepuri\OneDrive - Cranfield University\irp\pablo\re_200000\AOA_1\template_medium.cas.h5" in NODE0 mode ...
  Reading mesh ...
      181070 cells,     4 cell zones ...
          36824 mixed cells,  zone id: 2
         108032 mixed cells,  zone id: 4
          27008 mixed cells,  zone id: 12
           9206 mixed cells,  zone id: 11
      309160 faces,    14 face zones ...
          65137 2D interior faces,  zone id: 3
         181145 2D interior faces,  zone id: 5
             42 2D velocity-inlet faces,  zone id: 6
             38 2D pressure-outlet faces,  zone id: 7
             40 2D velocity-inlet faces,  zone id: 8
            458 2D interior faces,  zone id: 9
            456 2D interior faces,  zone id: 10
            228 2D parent-face faces,  zone id: 19
            229 2D parent-face faces,  zone id: 18
             20 2D parent-face faces,  zone id: 17
             19 2D parent-face faces,  zone id: 16
             21 2D parent-face faces,  zone id: 15
          45157 2D parent-face faces,  zone id: 14
          16170 2D parent-face faces,  zone id: 13
      102461 nodes,     1 node zone  ...
  Done.


Building...
     mesh
     materials,
     interface,
     domains,
	mixture
     zones,
	outlet
	inlet
	interior-fluid
	interior-porous
	symmetry
	upper
	lower
	fluid
	porous
WARNING: "Smooth" contours can't be displayed when node-values is set to off. Changing the Coloring type to "Banded".
     parallel,
Done.
OK


Overwrite confirmations (/file/set-batch-options ...)
are on -- will therefore ignore the following journal
Error: invalid command: OK


> 
adjoint/                parallel/               server/
define/                 parametric-study/       solve/
display/                plot/                   surface/
exit                    preferences/            views/
file/                   print-license-usage
mesh/                   report/

> ;modify permeability parameters
define/named-expressions/edit a definition " 0.0 " q q q

> define/named-expressions/edit b definition " 0.0 " q q q

> define/named-expressions/edit c definition " 0.0 " q q q

> define/named-expressions/edit d definition " 0.0 " q q q

> define/named-expressions/edit e1 definition " -5.0 " q q q

> define/named-expressions/edit a2 definition " 0.0 " q q q

> define/named-expressions/edit b2 definition " 0.0 " q q q

> define/named-expressions/edit c2 definition " 0.0 " q q q

> define/named-expressions/edit d2 definition " 0.0 " q q q

> define/named-expressions/edit e2 definition " -5.0 " q q q

> 
adjoint/                parallel/               server/
define/                 parametric-study/       solve/
display/                plot/                   surface/
exit                    preferences/            views/
file/                   print-license-usage
mesh/                   report/

> ;run simulation
solve/initialize/hyb-initialization 
Initialize using the hybrid initialization method.

Checking case topology... 
-This case has both inlets & outlets 
-Pressure information is not available at the boundaries.
 Case will be initialized with constant pressure

	iter		scalar-0

	1		1.000000e+00
	2		1.279247e-05
	3		9.752172e-07
	4		3.356781e-07
	5		6.406459e-08
	6		3.370431e-08
	7		4.238327e-08
	8		4.373469e-08
	9		3.299307e-08
	10		4.085588e-08

Hybrid initialization is done.


> solve/iterate 2000

  iter  continuity  x-velocity  y-velocity           k       omega     time/iter
     1  1.0000e+00  2.9031e-04  1.9300e-03  5.2430e-01  3.1120e-01  0:00:00 1999
     2  1.0000e+00  6.8952e-04  9.8917e-04  3.5747e-01  2.6676e-01  0:33:18 1998
     3  5.8062e-01  3.9478e-04  4.6022e-04  1.9067e-01  2.1257e-01  0:26:38 1997
     4  4.4981e-01  2.3380e-04  2.4601e-04  9.1548e-02  1.5699e-01  0:21:17 1996
     5  3.2074e-01  1.7360e-04  1.6202e-04  4.9099e-02  1.1033e-01  0:17:01 1995
     6  2.2922e-01  1.3676e-04  1.2741e-04  3.2074e-02  7.5814e-02  0:13:37 1994
     7  1.7544e-01  1.0373e-04  1.0863e-04  2.3938e-02  5.2942e-02  0:17:32 1993
     8  1.3409e-01  8.6312e-05  9.0535e-05  1.9214e-02  3.8449e-02  0:14:01 1992
     9  9.8695e-02  7.4211e-05  7.7704e-05  1.6013e-02  2.9293e-02  0:11:12 1991
    10  7.4304e-02  6.4823e-05  6.9411e-05  1.3675e-02  2.3223e-02  0:08:58 1990
    11  5.6217e-02  5.7657e-05  6.3077e-05  1.1908e-02  1.9011e-02  0:07:10 1989

  iter  continuity  x-velocity  y-velocity           k       omega     time/iter
    12  4.3122e-02  5.2271e-05  5.6849e-05  1.0538e-02  1.5976e-02  0:12:21 1988
    13  3.3750e-02  4.7533e-05  5.2769e-05  9.4282e-03  1.3713e-02  0:09:53 1987
    14  2.7069e-02  4.4343e-05  4.8753e-05  8.4668e-03  1.1817e-02  0:07:54 1986
    15  2.1785e-02  4.0923e-05  4.5667e-05  7.6664e-03  1.0337e-02  0:06:19 1985
    16  1.7895e-02  3.8300e-05  4.3131e-05  6.9885e-03  9.1550e-03  0:05:03 1984
    17  1.5246e-02  3.5803e-05  4.0798e-05  6.4138e-03  8.1937e-03  0:04:02 1983
    18  1.3177e-02  3.3984e-05  3.8546e-05  5.9168e-03  7.3982e-03  0:09:50 1982
    19  1.1451e-02  3.2253e-05  3.6520e-05  5.4874e-03  6.7315e-03  0:07:52 1981
    20  1.0126e-02  3.0801e-05  3.4691e-05  5.1136e-03  6.1652e-03  0:06:17 1980
    21  9.1084e-03  2.9576e-05  3.2944e-05  4.7842e-03  5.6784e-03  0:05:02 1979
    22  8.3064e-03  2.8474e-05  3.1290e-05  4.4893e-03  5.2569e-03  0:04:01 1978

  iter  continuity  x-velocity  y-velocity           k       omega     time/iter
    23  7.5604e-03  2.7459e-05  2.9745e-05  4.2257e-03  4.8888e-03  0:03:13 1977
    24  6.9557e-03  2.6517e-05  2.8286e-05  3.9903e-03  4.5644e-03  0:09:09 1976
    25  6.4709e-03  2.5641e-05  2.6892e-05  3.7781e-03  4.2770e-03  0:07:19 1975
    26  6.0420e-03  2.4841e-05  2.5572e-05  3.5864e-03  4.0212e-03  0:05:51 1974
    27  5.6726e-03  2.4102e-05  2.4323e-05  3.4133e-03  3.7916e-03  0:04:41 1973
    28  5.3563e-03  2.3416e-05  2.3143e-05  3.2556e-03  3.5844e-03  0:03:45 1972
    29  5.0865e-03  2.2782e-05  2.2027e-05  3.1124e-03  3.3970e-03  0:03:00 1971
    30  4.8602e-03  2.2194e-05  2.0967e-05  2.9795e-03  3.2269e-03  0:08:58 1970
    31  4.6411e-03  2.1660e-05  1.9960e-05  2.8570e-03  3.0722e-03  0:07:10 1969
    32  4.4418e-03  2.1155e-05  1.9005e-05  2.7431e-03  2.9307e-03  0:05:44 1968
    33  4.2329e-03  2.0691e-05  1.8098e-05  2.6378e-03  2.8011e-03  0:04:35 1967

  iter  continuity  x-velocity  y-velocity           k       omega     time/iter
    34  4.0507e-03  2.0252e-05  1.7235e-05  2.5392e-03  2.6819e-03  0:03:40 1966
    35  3.9211e-03  1.9851e-05  1.6421e-05  2.4484e-03  2.5720e-03  0:02:56 1965
    36  3.7808e-03  1.9467e-05  1.5652e-05  2.3644e-03  2.4703e-03  0:08:53 1964
    37  3.6522e-03  1.9106e-05  1.4923e-05  2.2859e-03  2.3759e-03  0:07:06 1963
    38  3.5599e-03  1.8775e-05  1.4229e-05  2.2121e-03  2.2884e-03  0:05:41 1962
    39  3.5156e-03  1.8481e-05  1.3578e-05  2.1434e-03  2.2069e-03  0:04:33 1961
    40  3.4408e-03  1.8176e-05  1.2959e-05  2.0796e-03  2.1307e-03  0:10:10 1960
    41  3.3724e-03  1.7905e-05  1.2369e-05  2.0195e-03  2.0594e-03  0:08:08 1959
    42  3.3183e-03  1.7654e-05  1.1816e-05  1.9638e-03  1.9925e-03  0:06:30 1958
    43  3.2756e-03  1.7411e-05  1.1295e-05  1.9124e-03  1.9296e-03  0:05:12 1957
    44  3.2311e-03  1.7181e-05  1.0803e-05  1.8643e-03  1.8704e-03  0:04:09 1956

  iter  continuity  x-velocity  y-velocity           k       omega     time/iter
    45  3.1638e-03  1.6946e-05  1.0341e-05  1.8196e-03  1.8146e-03  0:03:19 1955
    46  3.1340e-03  1.6752e-05  9.9038e-06  1.7780e-03  1.7620e-03  0:09:10 1954
    47  3.1407e-03  1.6539e-05  9.5042e-06  1.7388e-03  1.7121e-03  0:07:20 1953
    48  3.0870e-03  1.6367e-05  9.0960e-06  1.7017e-03  1.6651e-03  0:05:52 1952
    49  3.0885e-03  1.6157e-05  8.7341e-06  1.6670e-03  1.6205e-03  0:04:41 1951
    50  3.0159e-03  1.6000e-05  8.3709e-06  1.6346e-03  1.5780e-03  0:03:45 1950
    51  3.0367e-03  1.5835e-05  8.0525e-06  1.6038e-03  1.5376e-03  0:03:00 1949
    52  2.9792e-03  1.5650e-05  7.7367e-06  1.5746e-03  1.4991e-03  0:08:53 1948
    53  2.9319e-03  1.5506e-05  7.4256e-06  1.5464e-03  1.4623e-03  0:07:06 1947
    54  2.9312e-03  1.5336e-05  7.1588e-06  1.5201e-03  1.4273e-03  0:05:41 1946
    55  2.9280e-03  1.5185e-05  6.8936e-06  1.4953e-03  1.3938e-03  0:04:33 1945

  iter  continuity  x-velocity  y-velocity           k       omega     time/iter
    56  2.9147e-03  1.5017e-05  6.6380e-06  1.4710e-03  1.3617e-03  0:03:38 1944
    57  2.9078e-03  1.4871e-05  6.4018e-06  1.4480e-03  1.3310e-03  0:02:54 1943
    58  2.9091e-03  1.4733e-05  6.1816e-06  1.4259e-03  1.3016e-03  0:08:48 1942
    59  2.8798e-03  1.4556e-05  5.9769e-06  1.4044e-03  1.2732e-03  0:07:02 1941
    60  2.8556e-03  1.4399e-05  5.7821e-06  1.3842e-03  1.2458e-03  0:05:37 1940
    61  2.8381e-03  1.4256e-05  5.5941e-06  1.3646e-03  1.2195e-03  0:04:30 1939
    62  2.8093e-03  1.4114e-05  5.4198e-06  1.3452e-03  1.1943e-03  0:03:36 1938
    63  2.8090e-03  1.3975e-05  5.2542e-06  1.3269e-03  1.1700e-03  0:02:53 1937
    64  2.8024e-03  1.3824e-05  5.0989e-06  1.3093e-03  1.1467e-03  0:08:45 1936
    65  2.7997e-03  1.3681e-05  4.9517e-06  1.2922e-03  1.1242e-03  0:07:00 1935
    66  2.7956e-03  1.3545e-05  4.8151e-06  1.2754e-03  1.1025e-03  0:05:36 1934

  iter  continuity  x-velocity  y-velocity           k       omega     time/iter
    67  2.7977e-03  1.3417e-05  4.6853e-06  1.2594e-03  1.0815e-03  0:04:28 1933
    68  2.8071e-03  1.3297e-05  4.5646e-06  1.2441e-03  1.0613e-03  0:03:35 1932
    69  2.8038e-03  1.3164e-05  4.4552e-06  1.2288e-03  1.0418e-03  0:02:52 1931
    70  2.7844e-03  1.3033e-05  4.3486e-06  1.2139e-03  1.0229e-03  0:08:43 1930
    71  2.7730e-03  1.2929e-05  4.2526e-06  1.1998e-03  1.0046e-03  0:06:58 1929
    72  2.7878e-03  1.2827e-05  4.1629e-06  1.1863e-03  9.8701e-04  0:05:35 1928
    73  2.7968e-03  1.2714e-05  4.0833e-06  1.1727e-03  9.7001e-04  0:04:27 1927
    74  2.7928e-03  1.2599e-05  4.0083e-06  1.1598e-03  9.5358e-04  0:03:34 1926
    75  2.7856e-03  1.2496e-05  3.9356e-06  1.1473e-03  9.3767e-04  0:02:51 1925
    76  2.7865e-03  1.2406e-05  3.8697e-06  1.1350e-03  9.2246e-04  0:08:42 1924
    77  2.7787e-03  1.2318e-05  3.8096e-06  1.1231e-03  9.0759e-04  0:06:57 1923

  iter  continuity  x-velocity  y-velocity           k       omega     time/iter
    78  2.7803e-03  1.2227e-05  3.7541e-06  1.1116e-03  8.9326e-04  0:05:33 1922
    79  2.7897e-03  1.2130e-05  3.7028e-06  1.1003e-03  8.7929e-04  0:04:27 1921
    80  2.7901e-03  1.2043e-05  3.6539e-06  1.0893e-03  8.6597e-04  0:03:33 1920
    81  2.8098e-03  1.1960e-05  3.6101e-06  1.0783e-03  8.5309e-04  0:02:50 1919
    82  2.8164e-03  1.1878e-05  3.5655e-06  1.0677e-03  8.4046e-04  0:08:40 1918
    83  2.8072e-03  1.1788e-05  3.5237e-06  1.0572e-03  8.2818e-04  0:06:56 1917
    84  2.8112e-03  1.1707e-05  3.4842e-06  1.0470e-03  8.1626e-04  0:05:32 1916
    85  2.8240e-03  1.1628e-05  3.4500e-06  1.0370e-03  8.0472e-04  0:04:26 1915
    86  2.8332e-03  1.1536e-05  3.4159e-06  1.0273e-03  7.9350e-04  0:09:55 1914
    87  2.8267e-03  1.1457e-05  3.3810e-06  1.0178e-03  7.8270e-04  0:07:56 1913
    88  2.8173e-03  1.1377e-05  3.3484e-06  1.0082e-03  7.7220e-04  0:06:21 1912

  iter  continuity  x-velocity  y-velocity           k       omega     time/iter
    89  2.8146e-03  1.1294e-05  3.3158e-06  9.9901e-04  7.6205e-04  0:05:04 1911
    90  2.8216e-03  1.1208e-05  3.2850e-06  9.8983e-04  7.5214e-04  0:04:03 1910
    91  2.8233e-03  1.1128e-05  3.2572e-06  9.8087e-04  7.4239e-04  0:03:15 1909
    92  2.8321e-03  1.1049e-05  3.2296e-06  9.7198e-04  7.3289e-04  0:08:57 1908
    93  2.8343e-03  1.0970e-05  3.2029e-06  9.6348e-04  7.2364e-04  0:07:10 1907
    94  2.8408e-03  1.0888e-05  3.1757e-06  9.5498e-04  7.1464e-04  0:05:43 1906
    95  2.8233e-03  1.0801e-05  3.1493e-06  9.4681e-04  7.0593e-04  0:04:35 1905
    96  2.8226e-03  1.0717e-05  3.1202e-06  9.3877e-04  6.9741e-04  0:03:40 1904
    97  2.8171e-03  1.0634e-05  3.0943e-06  9.3065e-04  6.8915e-04  0:02:56 1903
    98  2.8104e-03  1.0552e-05  3.0685e-06  9.2282e-04  6.8106e-04  0:08:41 1902
    99  2.8127e-03  1.0465e-05  3.0406e-06  9.1513e-04  6.7323e-04  0:06:56 1901

  iter  continuity  x-velocity  y-velocity           k       omega     time/iter
   100  2.8096e-03  1.0390e-05  3.0114e-06  9.0764e-04  6.6560e-04  0:05:33 1900
   101  2.8074e-03  1.0310e-05  2.9817e-06  9.0032e-04  6.5814e-04  0:04:26 1899
   102  2.8009e-03  1.0227e-05  2.9519e-06  8.9328e-04  6.5082e-04  0:03:33 1898
   103  2.7782e-03  1.0139e-05  2.9211e-06  8.8638e-04  6.4368e-04  0:02:50 1897
   104  2.7650e-03  1.0054e-05  2.8905e-06  8.7966e-04  6.3666e-04  0:08:35 1896
   105  2.7627e-03  9.9674e-06  2.8585e-06  8.7316e-04  6.2991e-04  0:06:52 1895
   106  2.7596e-03  9.8884e-06  2.8279e-06  8.6670e-04  6.2335e-04  0:05:29 1894
   107  2.7615e-03  9.8067e-06  2.7994e-06  8.6037e-04  6.1696e-04  0:04:23 1893
   108  2.7542e-03  9.7216e-06  2.7678e-06  8.5413e-04  6.1068e-04  0:03:31 1892
   109  2.7421e-03  9.6411e-06  2.7354e-06  8.4795e-04  6.0453e-04  0:02:48 1891
   110  2.7329e-03  9.5579e-06  2.7072e-06  8.4186e-04  5.9852e-04  0:08:33 1890

  iter  continuity  x-velocity  y-velocity           k       omega     time/iter
   111  2.7173e-03  9.4846e-06  2.6745e-06  8.3601e-04  5.9269e-04  0:06:50 1889
   112  2.6867e-03  9.4071e-06  2.6413e-06  8.3017e-04  5.8692e-04  0:05:28 1888
   113  2.6661e-03  9.3340e-06  2.6085e-06  8.2443e-04  5.8128e-04  0:04:22 1887
   114  2.6522e-03  9.2601e-06  2.5761e-06  8.1889e-04  5.7574e-04  0:03:30 1886
   115  2.6480e-03  9.1854e-06  2.5437e-06  8.1346e-04  5.7029e-04  0:02:48 1885
   116  2.6245e-03  9.1095e-06  2.5102e-06  8.0814e-04  5.6498e-04  0:08:31 1884
   117  2.5983e-03  9.0331e-06  2.4776e-06  8.0280e-04  5.5978e-04  0:06:48 1883
   118  2.5866e-03  8.9646e-06  2.4453e-06  7.9744e-04  5.5465e-04  0:05:27 1882
   119  2.5733e-03  8.8980e-06  2.4160e-06  7.9215e-04  5.4966e-04  0:04:21 1881
   120  2.5586e-03  8.8373e-06  2.3856e-06  7.8701e-04  5.4473e-04  0:03:29 1880
   121  2.5479e-03  8.7706e-06  2.3560e-06  7.8202e-04  5.3987e-04  0:02:47 1879

  iter  continuity  x-velocity  y-velocity           k       omega     time/iter
   122  2.5318e-03  8.7044e-06  2.3244e-06  7.7708e-04  5.3515e-04  0:02:13 1878
   123  2.5077e-03  8.6365e-06  2.2935e-06  7.7207e-04  5.3057e-04  0:08:02 1877
   124  2.4832e-03  8.5660e-06  2.2624e-06  7.6708e-04  5.2603e-04  0:06:25 1876
   125  2.4612e-03  8.4967e-06  2.2298e-06  7.6222e-04  5.2156e-04  0:05:08 1875
   126  2.4321e-03  8.4282e-06  2.1991e-06  7.5743e-04  5.1714e-04  0:04:06 1874
   127  2.4164e-03  8.3660e-06  2.1678e-06  7.5275e-04  5.1281e-04  0:03:17 1873
   128  2.3848e-03  8.3043e-06  2.1377e-06  7.4812e-04  5.0855e-04  0:02:38 1872
   129  2.3608e-03  8.2424e-06  2.1077e-06  7.4339e-04  5.0439e-04  0:08:20 1871
   130  2.3417e-03  8.1832e-06  2.0769e-06  7.3871e-04  5.0031e-04  0:06:40 1870
   131  2.3334e-03  8.1274e-06  2.0479e-06  7.3412e-04  4.9629e-04  0:05:20 1869
   132  2.3192e-03  8.0678e-06  2.0202e-06  7.2964e-04  4.9231e-04  0:04:16 1868

  iter  continuity  x-velocity  y-velocity           k       omega     time/iter
   133  2.2911e-03  8.0098e-06  1.9931e-06  7.2525e-04  4.8838e-04  0:09:38 1867
   134  2.2727e-03  7.9530e-06  1.9631e-06  7.2089e-04  4.8455e-04  0:07:42 1866
   135  2.2590e-03  7.8935e-06  1.9341e-06  7.1655e-04  4.8074e-04  0:06:09 1865
   136  2.2434e-03  7.8379e-06  1.9056e-06  7.1221e-04  4.7703e-04  0:04:55 1864
   137  2.2416e-03  7.7854e-06  1.8795e-06  7.0797e-04  4.7335e-04  0:03:56 1863
   138  2.2259e-03  7.7320e-06  1.8556e-06  7.0369e-04  4.6976e-04  0:03:09 1862
   139  2.2031e-03  7.6775e-06  1.8327e-06  6.9938e-04  4.6622e-04  0:08:43 1861
   140  2.1865e-03  7.6252e-06  1.8078e-06  6.9518e-04  4.6273e-04  0:06:58 1860
   141  2.1718e-03  7.5701e-06  1.7818e-06  6.9099e-04  4.5926e-04  0:05:34 1859
   142  2.1549e-03  7.5126e-06  1.7584e-06  6.8688e-04  4.5584e-04  0:04:27 1858
   143  2.1379e-03  7.4604e-06  1.7366e-06  6.8282e-04  4.5245e-04  0:03:34 1857

  iter  continuity  x-velocity  y-velocity           k       omega     time/iter
   144  2.1249e-03  7.4101e-06  1.7140e-06  6.7884e-04  4.4913e-04  0:02:51 1856
   145  2.1027e-03  7.3533e-06  1.6906e-06  6.7479e-04  4.4586e-04  0:08:28 1855
   146  2.0876e-03  7.3025e-06  1.6656e-06  6.7071e-04  4.4261e-04  0:06:46 1854
   147  2.0721e-03  7.2519e-06  1.6427e-06  6.6667e-04  4.3937e-04  0:05:25 1853
   148  2.0695e-03  7.2007e-06  1.6236e-06  6.6268e-04  4.3624e-04  0:04:20 1852
   149  2.0637e-03  7.1504e-06  1.6058e-06  6.5875e-04  4.3313e-04  0:03:28 1851
   150  2.0557e-03  7.1048e-06  1.5853e-06  6.5481e-04  4.3001e-04  0:02:46 1850
   151  2.0407e-03  7.0578e-06  1.5622e-06  6.5082e-04  4.2690e-04  0:08:22 1849
   152  2.0193e-03  7.0100e-06  1.5412e-06  6.4682e-04  4.2378e-04  0:06:42 1848
   153  2.0085e-03  6.9629e-06  1.5210e-06  6.4292e-04  4.2078e-04  0:05:21 1847
   154  1.9949e-03  6.9116e-06  1.5018e-06  6.3900e-04  4.1778e-04  0:04:17 1846

  iter  continuity  x-velocity  y-velocity           k       omega     time/iter
   155  1.9851e-03  6.8558e-06  1.4826e-06  6.3516e-04  4.1481e-04  0:03:25 1845
   156  1.9829e-03  6.7990e-06  1.4637e-06  6.3135e-04  4.1186e-04  0:02:44 1844
   157  1.9710e-03  6.7460e-06  1.4467e-06  6.2754e-04  4.0898e-04  0:08:20 1843
   158  1.9636e-03  6.6948e-06  1.4294e-06  6.2367e-04  4.0611e-04  0:06:40 1842
   159  1.9715e-03  6.6465e-06  1.4119e-06  6.1976e-04  4.0323e-04  0:05:20 1841
   160  1.9638e-03  6.5961e-06  1.3951e-06  6.1584e-04  4.0039e-04  0:04:16 1840
   161  1.9581e-03  6.5438e-06  1.3769e-06  6.1192e-04  3.9757e-04  0:03:24 1839
   162  1.9677e-03  6.4954e-06  1.3627e-06  6.0807e-04  3.9480e-04  0:02:43 1838
   163  1.9754e-03  6.4460e-06  1.3466e-06  6.0425e-04  3.9205e-04  0:02:11 1837
   164  1.9890e-03  6.3983e-06  1.3296e-06  6.0040e-04  3.8933e-04  0:07:52 1836
   165  1.9963e-03  6.3504e-06  1.3151e-06  5.9659e-04  3.8664e-04  0:06:17 1835

  iter  continuity  x-velocity  y-velocity           k       omega     time/iter
   166  1.9867e-03  6.3058e-06  1.3002e-06  5.9272e-04  3.8400e-04  0:05:02 1834
   167  1.9817e-03  6.2610e-06  1.2843e-06  5.8894e-04  3.8138e-04  0:04:01 1833
   168  1.9820e-03  6.2186e-06  1.2685e-06  5.8515e-04  3.7879e-04  0:03:13 1832
   169  1.9901e-03  6.1807e-06  1.2522e-06  5.8139e-04  3.7621e-04  0:02:34 1831
   170  1.9925e-03  6.1299e-06  1.2365e-06  5.7763e-04  3.7366e-04  0:08:09 1830
   171  1.9947e-03  6.0883e-06  1.2205e-06  5.7387e-04  3.7112e-04  0:06:31 1829
   172  1.9882e-03  6.0400e-06  1.2038e-06  5.7009e-04  3.6860e-04  0:05:13 1828
   173  1.9655e-03  5.9915e-06  1.1881e-06  5.6634e-04  3.6607e-04  0:04:10 1827
   174  1.9599e-03  5.9478e-06  1.1705e-06  5.6259e-04  3.6360e-04  0:03:20 1826
   175  1.9560e-03  5.8967e-06  1.1549e-06  5.5888e-04  3.6116e-04  0:08:45 1825
   176  1.9660e-03  5.8440e-06  1.1386e-06  5.5518e-04  3.5871e-04  0:07:00 1824

  iter  continuity  x-velocity  y-velocity           k       omega     time/iter
   177  1.9712e-03  5.7951e-06  1.1246e-06  5.5149e-04  3.5628e-04  0:05:36 1823
   178  1.9640e-03  5.7447e-06  1.1115e-06  5.4783e-04  3.5386e-04  0:04:28 1822
   179  1.9491e-03  5.6932e-06  1.0996e-06  5.4417e-04  3.5148e-04  0:03:35 1821
   180  1.9382e-03  5.6430e-06  1.0856e-06  5.4054e-04  3.4912e-04  0:02:52 1820
   181  1.9421e-03  5.5951e-06  1.0720e-06  5.3691e-04  3.4674e-04  0:08:21 1819
   182  1.9459e-03  5.5459e-06  1.0584e-06  5.3329e-04  3.4439e-04  0:06:41 1818
   183  1.9457e-03  5.5008e-06  1.0433e-06  5.2972e-04  3.4204e-04  0:05:20 1817
   184  1.9558e-03  5.4571e-06  1.0299e-06  5.2615e-04  3.3970e-04  0:04:16 1816
   185  1.9525e-03  5.4116e-06  1.0194e-06  5.2261e-04  3.3735e-04  0:03:25 1815
   186  1.9583e-03  5.3686e-06  1.0074e-06  5.1908e-04  3.3505e-04  0:02:44 1814
   187  1.9480e-03  5.3157e-06  9.9521e-07  5.1558e-04  3.3275e-04  0:08:13 1813

  iter  continuity  x-velocity  y-velocity           k       omega     time/iter
   188  1.9428e-03  5.2735e-06  9.8416e-07  5.1214e-04  3.3046e-04  0:06:35 1812
   189  1.9361e-03  5.2314e-06  9.7469e-07  5.0868e-04  3.2813e-04  0:05:15 1811
   190  1.9284e-03  5.1898e-06  9.6525e-07  5.0531e-04  3.2582e-04  0:04:12 1810
   191  1.9314e-03  5.1504e-06  9.5855e-07  5.0197e-04  3.2352e-04  0:03:22 1809
   192  1.9363e-03  5.1171e-06  9.5257e-07  4.9866e-04  3.2124e-04  0:02:41 1808
   193  1.9221e-03  5.0771e-06  9.4421e-07  4.9534e-04  3.1897e-04  0:08:10 1807
   194  1.9048e-03  5.0398e-06  9.3503e-07  4.9205e-04  3.1673e-04  0:06:32 1806
   195  1.8927e-03  5.0058e-06  9.2782e-07  4.8881e-04  3.1449e-04  0:05:13 1805
   196  1.8798e-03  4.9680e-06  9.1951e-07  4.8560e-04  3.1226e-04  0:04:11 1804
   197  1.8652e-03  4.9339e-06  9.1202e-07  4.8239e-04  3.1005e-04  0:03:20 1803
   198  1.8376e-03  4.8952e-06  9.0716e-07  4.7926e-04  3.0785e-04  0:02:40 1802

  iter  continuity  x-velocity  y-velocity           k       omega     time/iter
   199  1.8214e-03  4.8578e-06  9.0007e-07  4.7616e-04  3.0566e-04  0:08:08 1801
   200  1.8104e-03  4.8228e-06  8.9480e-07  4.7310e-04  3.0348e-04  0:06:30 1800
   201  1.8019e-03  4.7899e-06  8.8784e-07  4.7006e-04  3.0133e-04  0:05:12 1799
   202  1.8094e-03  4.7631e-06  8.8264e-07  4.6705e-04  2.9918e-04  0:04:10 1798
   203  1.8040e-03  4.7360e-06  8.7761e-07  4.6411e-04  2.9702e-04  0:03:20 1797
   204  1.8038e-03  4.7116e-06  8.7439e-07  4.6119e-04  2.9490e-04  0:02:40 1796
   205  1.7999e-03  4.6901e-06  8.6858e-07  4.5831e-04  2.9276e-04  0:08:07 1795
   206  1.8000e-03  4.6661e-06  8.6228e-07  4.5547e-04  2.9061e-04  0:06:29 1794
   207  1.7970e-03  4.6387e-06  8.5868e-07  4.5266e-04  2.8847e-04  0:05:11 1793
   208  1.7854e-03  4.6141e-06  8.5718e-07  4.4989e-04  2.8634e-04  0:04:09 1792
   209  1.7817e-03  4.5915e-06  8.5309e-07  4.4717e-04  2.8421e-04  0:03:19 1791

  iter  continuity  x-velocity  y-velocity           k       omega     time/iter
   210  1.7729e-03  4.5658e-06  8.4840e-07  4.4449e-04  2.8209e-04  0:02:39 1790
   211  1.7601e-03  4.5369e-06  8.4339e-07  4.4187e-04  2.7997e-04  0:02:07 1789
   212  1.7436e-03  4.5090e-06  8.3920e-07  4.3928e-04  2.7785e-04  0:07:39 1788
   213  1.7348e-03  4.4786e-06  8.3256e-07  4.3675e-04  2.7573e-04  0:06:07 1787
   214  1.7242e-03  4.4436e-06  8.2822e-07  4.3421e-04  2.7362e-04  0:04:54 1786
   215  1.7122e-03  4.4098e-06  8.2175e-07  4.3174e-04  2.7152e-04  0:03:55 1785
   216  1.6981e-03  4.3751e-06  8.1299e-07  4.2928e-04  2.6942e-04  0:03:08 1784
   217  1.6874e-03  4.3419e-06  8.0776e-07  4.2686e-04  2.6732e-04  0:02:30 1783
   218  1.6846e-03  4.3112e-06  8.0404e-07  4.2446e-04  2.6523e-04  0:07:56 1782
   219  1.6736e-03  4.2813e-06  8.0077e-07  4.2208e-04  2.6314e-04  0:06:21 1781
   220  1.6590e-03  4.2500e-06  7.9645e-07  4.1971e-04  2.6106e-04  0:05:05 1780

  iter  continuity  x-velocity  y-velocity           k       omega     time/iter
   221  1.6519e-03  4.2211e-06  7.9055e-07  4.1734e-04  2.5901e-04  0:04:03 1779
   222  1.6462e-03  4.1934e-06  7.8628e-07  4.1500e-04  2.5696e-04  0:09:10 1778
   223  1.6405e-03  4.1649e-06  7.8117e-07  4.1265e-04  2.5491e-04  0:07:20 1777
   224  1.6274e-03  4.1336e-06  7.7690e-07  4.1032e-04  2.5287e-04  0:05:52 1776
   225  1.6255e-03  4.1055e-06  7.7260e-07  4.0798e-04  2.5085e-04  0:04:41 1775
   226  1.6167e-03  4.0727e-06  7.6751e-07  4.0565e-04  2.4883e-04  0:03:45 1774
   227  1.6013e-03  4.0450e-06  7.6353e-07  4.0333e-04  2.4682e-04  0:03:00 1773
   228  1.5880e-03  4.0186e-06  7.5670e-07  4.0104e-04  2.4482e-04  0:08:18 1772
   229  1.5674e-03  3.9877e-06  7.5160e-07  3.9875e-04  2.4282e-04  0:06:38 1771
   230  1.5470e-03  3.9566e-06  7.4535e-07  3.9646e-04  2.4083e-04  0:05:18 1770
   231  1.5356e-03  3.9285e-06  7.3858e-07  3.9418e-04  2.3884e-04  0:04:15 1769

  iter  continuity  x-velocity  y-velocity           k       omega     time/iter
   232  1.5191e-03  3.9006e-06  7.3464e-07  3.9193e-04  2.3686e-04  0:03:24 1768
   233  1.5059e-03  3.8732e-06  7.3068e-07  3.8967e-04  2.3489e-04  0:02:43 1767
   234  1.4965e-03  3.8457e-06  7.2818e-07  3.8744e-04  2.3293e-04  0:02:10 1766
   235  1.4856e-03  3.8196e-06  7.2364e-07  3.8521e-04  2.3098e-04  0:07:37 1765
   236  1.4692e-03  3.7943e-06  7.1718e-07  3.8300e-04  2.2904e-04  0:06:05 1764
   237  1.4512e-03  3.7688e-06  7.0829e-07  3.8081e-04  2.2711e-04  0:04:52 1763
   238  1.4389e-03  3.7451e-06  7.0217e-07  3.7861e-04  2.2519e-04  0:03:54 1762
   239  1.4215e-03  3.7200e-06  6.9626e-07  3.7642e-04  2.2327e-04  0:03:07 1761
   240  1.4136e-03  3.6962e-06  6.9116e-07  3.7425e-04  2.2137e-04  0:02:29 1760
   241  1.4050e-03  3.6727e-06  6.8589e-07  3.7208e-04  2.1948e-04  0:07:51 1759
   242  1.3881e-03  3.6483e-06  6.8143e-07  3.6993e-04  2.1759e-04  0:06:17 1758

  iter  continuity  x-velocity  y-velocity           k       omega     time/iter
   243  1.3788e-03  3.6245e-06  6.7656e-07  3.6778e-04  2.1573e-04  0:05:01 1757
   244  1.3657e-03  3.5991e-06  6.7051e-07  3.6564e-04  2.1386e-04  0:04:01 1756
   245  1.3501e-03  3.5713e-06  6.6456e-07  3.6352e-04  2.1202e-04  0:03:13 1755
   246  1.3281e-03  3.5443e-06  6.5927e-07  3.6141e-04  2.1020e-04  0:02:34 1754
   247  1.3117e-03  3.5155e-06  6.5332e-07  3.5931e-04  2.0839e-04  0:07:54 1753
   248  1.2918e-03  3.4898e-06  6.4916e-07  3.5722e-04  2.0660e-04  0:06:19 1752
   249  1.2715e-03  3.4617e-06  6.4348e-07  3.5514e-04  2.0483e-04  0:05:03 1751
   250  1.2540e-03  3.4358e-06  6.3725e-07  3.5307e-04  2.0308e-04  0:04:02 1750
   251  1.2351e-03  3.4093e-06  6.3116e-07  3.5101e-04  2.0134e-04  0:03:14 1749
   252  1.2151e-03  3.3846e-06  6.2563e-07  3.4896e-04  1.9963e-04  0:02:35 1748
   253  1.2014e-03  3.3578e-06  6.2136e-07  3.4693e-04  1.9793e-04  0:07:53 1747

  iter  continuity  x-velocity  y-velocity           k       omega     time/iter
   254  1.1862e-03  3.3348e-06  6.1797e-07  3.4492e-04  1.9625e-04  0:06:18 1746
   255  1.1767e-03  3.3091e-06  6.1178e-07  3.4292e-04  1.9460e-04  0:05:02 1745
   256  1.1671e-03  3.2824e-06  6.0686e-07  3.4093e-04  1.9296e-04  0:04:02 1744
   257  1.1529e-03  3.2556e-06  6.0258e-07  3.3897e-04  1.9135e-04  0:03:13 1743
   258  1.1383e-03  3.2297e-06  5.9767e-07  3.3701e-04  1.8976e-04  0:02:35 1742
   259  1.1272e-03  3.2040e-06  5.8964e-07  3.3507e-04  1.8819e-04  0:07:52 1741
   260  1.1121e-03  3.1805e-06  5.8361e-07  3.3314e-04  1.8666e-04  0:06:17 1740
   261  1.1027e-03  3.1555e-06  5.7633e-07  3.3124e-04  1.8514e-04  0:05:02 1739
   262  1.0899e-03  3.1323e-06  5.6955e-07  3.2931e-04  1.8366e-04  0:04:01 1738
   263  1.0738e-03  3.1085e-06  5.6400e-07  3.2742e-04  1.8220e-04  0:03:13 1737
   264  1.0595e-03  3.0854e-06  5.5834e-07  3.2552e-04  1.8077e-04  0:02:34 1736

  iter  continuity  x-velocity  y-velocity           k       omega     time/iter
   265  1.0524e-03  3.0620e-06  5.5345e-07  3.2366e-04  1.7937e-04  0:07:50 1735
   266  1.0419e-03  3.0378e-06  5.4840e-07  3.2179e-04  1.7800e-04  0:06:16 1734
   267  1.0253e-03  3.0136e-06  5.4402e-07  3.1994e-04  1.7666e-04  0:05:01 1733
   268  1.0245e-03  2.9913e-06  5.4002e-07  3.1810e-04  1.7534e-04  0:04:00 1732
   269  1.0106e-03  2.9686e-06  5.3517e-07  3.1629e-04  1.7406e-04  0:08:58 1731
   270  1.0101e-03  2.9444e-06  5.3210e-07  3.1446e-04  1.7280e-04  0:07:10 1730
   271  1.0119e-03  2.9214e-06  5.2848e-07  3.1267e-04  1.7158e-04  0:05:44 1729
   272  1.0107e-03  2.8981e-06  5.2474e-07  3.1087e-04  1.7038e-04  0:04:35 1728
   273  1.0097e-03  2.8738e-06  5.2141e-07  3.0909e-04  1.6922e-04  0:03:40 1727
   274  1.0017e-03  2.8500e-06  5.1765e-07  3.0732e-04  1.6809e-04  0:02:56 1726
   275  9.9833e-04  2.8263e-06  5.1459e-07  3.0557e-04  1.6699e-04  0:02:21 1725

  iter  continuity  x-velocity  y-velocity           k       omega     time/iter
   276  9.9532e-04  2.8039e-06  5.1170e-07  3.0381e-04  1.6593e-04  0:07:37 1724
   277  9.9012e-04  2.7789e-06  5.0802e-07  3.0208e-04  1.6490e-04  0:06:06 1723
   278  9.8613e-04  2.7533e-06  5.0456e-07  3.0034e-04  1.6390e-04  0:04:52 1722
   279  9.7673e-04  2.7287e-06  5.0131e-07  2.9861e-04  1.6293e-04  0:03:54 1721
   280  9.7311e-04  2.7041e-06  4.9775e-07  2.9688e-04  1.6199e-04  0:03:07 1720
   281  9.6172e-04  2.6767e-06  4.9468e-07  2.9518e-04  1.6109e-04  0:02:29 1719
   282  9.5322e-04  2.6502e-06  4.9189e-07  2.9345e-04  1.6022e-04  0:07:43 1718
   283  9.4354e-04  2.6244e-06  4.9008e-07  2.9176e-04  1.5937e-04  0:06:10 1717
   284  9.3137e-04  2.5989e-06  4.8450e-07  2.9005e-04  1.5856e-04  0:04:56 1716
   285  9.2530e-04  2.5745e-06  4.8301e-07  2.8837e-04  1.5777e-04  0:03:57 1715
   286  9.1650e-04  2.5501e-06  4.7838e-07  2.8667e-04  1.5702e-04  0:03:09 1714

  iter  continuity  x-velocity  y-velocity           k       omega     time/iter
   287  9.0320e-04  2.5271e-06  4.7443e-07  2.8501e-04  1.5629e-04  0:02:31 1713
   288  8.9173e-04  2.5052e-06  4.7190e-07  2.8332e-04  1.5560e-04  0:07:43 1712
   289  8.8224e-04  2.4812e-06  4.6868e-07  2.8167e-04  1.5493e-04  0:06:10 1711
   290  8.6952e-04  2.4589e-06  4.6572e-07  2.8002e-04  1.5430e-04  0:04:56 1710
   291  8.6276e-04  2.4343e-06  4.6338e-07  2.7838e-04  1.5368e-04  0:03:57 1709
   292  8.4826e-04  2.4113e-06  4.5976e-07  2.7674e-04  1.5310e-04  0:03:09 1708
   293  8.3583e-04  2.3873e-06  4.5625e-07  2.7512e-04  1.5255e-04  0:02:31 1707
   294  8.2505e-04  2.3653e-06  4.5167e-07  2.7351e-04  1.5203e-04  0:07:42 1706
   295  8.1351e-04  2.3430e-06  4.4906e-07  2.7189e-04  1.5153e-04  0:06:10 1705
   296  8.0612e-04  2.3209e-06  4.4555e-07  2.7028e-04  1.5105e-04  0:04:55 1704
   297  7.9846e-04  2.3003e-06  4.4274e-07  2.6868e-04  1.5059e-04  0:03:56 1703

  iter  continuity  x-velocity  y-velocity           k       omega     time/iter
   298  7.8743e-04  2.2804e-06  4.4006e-07  2.6707e-04  1.5016e-04  0:03:09 1702
   299  7.7935e-04  2.2603e-06  4.3664e-07  2.6548e-04  1.4976e-04  0:02:31 1701
   300  7.6574e-04  2.2416e-06  4.3275e-07  2.6389e-04  1.4937e-04  0:02:01 1700
   301  7.5500e-04  2.2226e-06  4.2966e-07  2.6230e-04  1.4900e-04  0:07:16 1699
   302  7.4091e-04  2.2029e-06  4.2518e-07  2.6073e-04  1.4864e-04  0:05:49 1698
   303  7.3587e-04  2.1838e-06  4.2544e-07  2.5917e-04  1.4831e-04  0:04:39 1697
   304  7.2232e-04  2.1654e-06  4.2117e-07  2.5760e-04  1.4799e-04  0:03:43 1696
   305  7.1446e-04  2.1483e-06  4.2077e-07  2.5605e-04  1.4767e-04  0:02:58 1695
   306  7.0839e-04  2.1300e-06  4.1622e-07  2.5450e-04  1.4737e-04  0:02:23 1694
   307  7.0237e-04  2.1140e-06  4.1542e-07  2.5297e-04  1.4709e-04  0:07:33 1693
   308  6.8583e-04  2.0951e-06  4.1181e-07  2.5143e-04  1.4681e-04  0:06:02 1692

  iter  continuity  x-velocity  y-velocity           k       omega     time/iter
   309  6.8160e-04  2.0774e-06  4.1140e-07  2.4990e-04  1.4654e-04  0:04:49 1691
   310  6.6674e-04  2.0603e-06  4.0611e-07  2.4837e-04  1.4628e-04  0:03:51 1690
   311  6.5614e-04  2.0431e-06  4.0315e-07  2.4686e-04  1.4602e-04  0:03:05 1689
   312  6.4798e-04  2.0265e-06  4.0004e-07  2.4535e-04  1.4576e-04  0:02:28 1688
   313  6.4407e-04  2.0108e-06  3.9789e-07  2.4385e-04  1.4551e-04  0:07:36 1687
   314  6.3072e-04  1.9957e-06  3.9576e-07  2.4234e-04  1.4525e-04  0:06:04 1686
   315  6.2391e-04  1.9809e-06  3.9281e-07  2.4086e-04  1.4498e-04  0:04:51 1685
   316  6.1758e-04  1.9658e-06  3.9074e-07  2.3938e-04  1.4472e-04  0:03:53 1684
   317  6.0990e-04  1.9519e-06  3.8826e-07  2.3790e-04  1.4444e-04  0:08:43 1683
   318  5.9924e-04  1.9367e-06  3.8402e-07  2.3643e-04  1.4417e-04  0:06:58 1682
   319  5.9980e-04  1.9244e-06  3.8585e-07  2.3497e-04  1.4388e-04  0:05:34 1681

  iter  continuity  x-velocity  y-velocity           k       omega     time/iter
   320  5.8537e-04  1.9098e-06  3.7878e-07  2.3351e-04  1.4359e-04  0:04:27 1680
   321  5.8158e-04  1.8970e-06  3.8027e-07  2.3207e-04  1.4329e-04  0:03:34 1679
   322  5.7572e-04  1.8841e-06  3.7596e-07  2.3063e-04  1.4298e-04  0:02:51 1678
   323  5.6966e-04  1.8730e-06  3.7508e-07  2.2921e-04  1.4267e-04  0:07:52 1677
   324  5.6215e-04  1.8607e-06  3.7020e-07  2.2778e-04  1.4234e-04  0:06:17 1676
   325  5.5487e-04  1.8500e-06  3.7184e-07  2.2637e-04  1.4200e-04  0:05:02 1675
   326  5.4890e-04  1.8375e-06  3.6700e-07  2.2497e-04  1.4164e-04  0:04:01 1674
   327  5.4887e-04  1.8276e-06  3.6821e-07  2.2357e-04  1.4128e-04  0:03:13 1673
   328  5.4076e-04  1.8147e-06  3.6377e-07  2.2219e-04  1.4092e-04  0:02:34 1672
   329  5.3290e-04  1.8022e-06  3.6323e-07  2.2081e-04  1.4054e-04  0:02:03 1671
   330  5.2731e-04  1.7914e-06  3.6053e-07  2.1945e-04  1.4014e-04  0:07:13 1670

  iter  continuity  x-velocity  y-velocity           k       omega     time/iter
   331  5.2013e-04  1.7802e-06  3.5813e-07  2.1808e-04  1.3975e-04  0:05:46 1669
   332  5.1731e-04  1.7709e-06  3.5665e-07  2.1673e-04  1.3934e-04  0:04:37 1668
   333  5.0874e-04  1.7611e-06  3.5398e-07  2.1538e-04  1.3891e-04  0:03:41 1667
   334  5.0146e-04  1.7509e-06  3.5150e-07  2.1404e-04  1.3849e-04  0:02:57 1666
   335  5.0277e-04  1.7406e-06  3.5196e-07  2.1271e-04  1.3806e-04  0:02:21 1665
   336  4.9539e-04  1.7300e-06  3.4789e-07  2.1139e-04  1.3762e-04  0:07:26 1664
   337  4.9670e-04  1.7217e-06  3.4836e-07  2.1007e-04  1.3717e-04  0:05:56 1663
   338  4.9032e-04  1.7115e-06  3.4569e-07  2.0876e-04  1.3671e-04  0:04:45 1662
   339  4.9096e-04  1.7039e-06  3.4582e-07  2.0746e-04  1.3624e-04  0:03:48 1661
   340  4.8659e-04  1.6931e-06  3.4260e-07  2.0617e-04  1.3578e-04  0:03:02 1660
   341  4.8379e-04  1.6848e-06  3.4264e-07  2.0489e-04  1.3530e-04  0:02:26 1659

  iter  continuity  x-velocity  y-velocity           k       omega     time/iter
   342  4.8233e-04  1.6750e-06  3.3987e-07  2.0361e-04  1.3482e-04  0:07:28 1658
   343  4.7756e-04  1.6651e-06  3.4056e-07  2.0233e-04  1.3433e-04  0:05:58 1657
   344  4.7386e-04  1.6557e-06  3.3746e-07  2.0106e-04  1.3385e-04  0:04:46 1656
   345  4.7297e-04  1.6461e-06  3.3783e-07  1.9980e-04  1.3335e-04  0:03:49 1655
   346  4.6444e-04  1.6377e-06  3.3491e-07  1.9854e-04  1.3286e-04  0:03:03 1654
   347  4.6367e-04  1.6280e-06  3.3413e-07  1.9730e-04  1.3236e-04  0:02:26 1653
   348  4.5914e-04  1.6187e-06  3.3291e-07  1.9604e-04  1.3186e-04  0:01:57 1652
   349  4.5921e-04  1.6091e-06  3.3174e-07  1.9479e-04  1.3136e-04  0:07:04 1651
   350  4.5566e-04  1.5999e-06  3.3069e-07  1.9354e-04  1.3086e-04  0:05:39 1650
   351  4.5414e-04  1.5897e-06  3.3013e-07  1.9230e-04  1.3035e-04  0:04:31 1649
   352  4.5121e-04  1.5817e-06  3.2927e-07  1.9105e-04  1.2984e-04  0:03:37 1648

  iter  continuity  x-velocity  y-velocity           k       omega     time/iter
   353  4.4789e-04  1.5733e-06  3.2739e-07  1.8981e-04  1.2934e-04  0:02:53 1647
   354  4.4958e-04  1.5653e-06  3.2563e-07  1.8859e-04  1.2884e-04  0:02:18 1646
   355  4.4563e-04  1.5558e-06  3.2461e-07  1.8735e-04  1.2832e-04  0:07:20 1645
   356  4.4223e-04  1.5469e-06  3.2423e-07  1.8613e-04  1.2782e-04  0:05:52 1644
   357  4.3815e-04  1.5378e-06  3.2288e-07  1.8490e-04  1.2730e-04  0:04:41 1643
   358  4.3979e-04  1.5295e-06  3.2159e-07  1.8369e-04  1.2679e-04  0:03:45 1642
   359  4.3526e-04  1.5215e-06  3.2091e-07  1.8247e-04  1.2627e-04  0:08:28 1641
   360  4.3630e-04  1.5130e-06  3.1954e-07  1.8126e-04  1.2577e-04  0:06:46 1640
   361  4.2931e-04  1.5054e-06  3.1873e-07  1.8004e-04  1.2524e-04  0:05:25 1639
   362  4.2832e-04  1.4960e-06  3.1738e-07  1.7882e-04  1.2474e-04  0:04:20 1638
   363  4.2925e-04  1.4880e-06  3.1587e-07  1.7759e-04  1.2422e-04  0:03:28 1637

  iter  continuity  x-velocity  y-velocity           k       omega     time/iter
   364  4.2520e-04  1.4787e-06  3.1521e-07  1.7638e-04  1.2371e-04  0:02:46 1636
   365  4.2469e-04  1.4692e-06  3.1379e-07  1.7513e-04  1.2320e-04  0:02:13 1635
   366  4.2187e-04  1.4602e-06  3.1295e-07  1.7392e-04  1.2268e-04  0:07:13 1634
   367  4.2156e-04  1.4512e-06  3.1162e-07  1.7267e-04  1.2217e-04  0:05:46 1633
   368  4.1857e-04  1.4428e-06  3.1002e-07  1.7145e-04  1.2166e-04  0:04:37 1632
   369  4.1410e-04  1.4346e-06  3.0838e-07  1.7021e-04  1.2115e-04  0:03:41 1631
   370  4.1295e-04  1.4257e-06  3.0524e-07  1.6899e-04  1.2064e-04  0:02:57 1630
   371  4.1043e-04  1.4179e-06  3.0600e-07  1.6774e-04  1.2013e-04  0:02:21 1629
   372  4.0971e-04  1.4097e-06  3.0410e-07  1.6653e-04  1.1961e-04  0:07:19 1628
   373  4.0862e-04  1.4020e-06  3.0235e-07  1.6530e-04  1.1908e-04  0:05:51 1627
   374  4.0283e-04  1.3928e-06  3.0134e-07  1.6409e-04  1.1856e-04  0:04:40 1626

  iter  continuity  x-velocity  y-velocity           k       omega     time/iter
   375  4.0502e-04  1.3832e-06  3.0054e-07  1.6287e-04  1.1802e-04  0:03:44 1625
   376  4.0113e-04  1.3756e-06  2.9895e-07  1.6166e-04  1.1749e-04  0:02:59 1624
   377  4.0037e-04  1.3677e-06  2.9764e-07  1.6041e-04  1.1696e-04  0:02:23 1623
   378  3.9917e-04  1.3588e-06  2.9621e-07  1.5920e-04  1.1643e-04  0:07:19 1622
   379  3.9770e-04  1.3508e-06  2.9434e-07  1.5795e-04  1.1590e-04  0:05:51 1621
   380  3.9477e-04  1.3421e-06  2.9296e-07  1.5672e-04  1.1537e-04  0:04:41 1620
   381  3.9414e-04  1.3336e-06  2.9124e-07  1.5546e-04  1.1484e-04  0:03:44 1619
   382  3.9207e-04  1.3257e-06  2.8965e-07  1.5422e-04  1.1431e-04  0:02:59 1618
   383  3.8940e-04  1.3173e-06  2.8828e-07  1.5296e-04  1.1377e-04  0:02:23 1617
   384  3.8542e-04  1.3099e-06  2.8524e-07  1.5172e-04  1.1322e-04  0:07:18 1616
   385  3.8611e-04  1.3027e-06  2.8592e-07  1.5046e-04  1.1268e-04  0:05:50 1615

  iter  continuity  x-velocity  y-velocity           k       omega     time/iter
   386  3.8146e-04  1.2947e-06  2.8220e-07  1.4923e-04  1.1214e-04  0:04:40 1614
   387  3.8533e-04  1.2887e-06  2.8307e-07  1.4797e-04  1.1159e-04  0:03:44 1613
   388  3.8143e-04  1.2810e-06  2.7946e-07  1.4671e-04  1.1104e-04  0:02:59 1612
   389  3.8103e-04  1.2743e-06  2.7986e-07  1.4544e-04  1.1047e-04  0:02:23 1611
   390  3.7942e-04  1.2662e-06  2.7636e-07  1.4417e-04  1.0991e-04  0:01:54 1610
   391  3.7763e-04  1.2597e-06  2.7747e-07  1.4288e-04  1.0935e-04  0:06:53 1609
   392  3.7347e-04  1.2531e-06  2.7545e-07  1.4162e-04  1.0879e-04  0:05:30 1608
   393  3.7286e-04  1.2466e-06  2.7434e-07  1.4032e-04  1.0821e-04  0:04:24 1607
   394  3.6966e-04  1.2406e-06  2.7134e-07  1.3905e-04  1.0761e-04  0:03:31 1606
   395  3.7149e-04  1.2347e-06  2.7144e-07  1.3776e-04  1.0700e-04  0:02:49 1605
   396  3.6984e-04  1.2286e-06  2.6975e-07  1.3651e-04  1.0641e-04  0:02:15 1604

  iter  continuity  x-velocity  y-velocity           k       omega     time/iter
   397  3.6804e-04  1.2226e-06  2.6655e-07  1.3524e-04  1.0579e-04  0:07:09 1603
   398  3.6804e-04  1.2173e-06  2.6663e-07  1.3400e-04  1.0518e-04  0:05:43 1602
   399  3.6886e-04  1.2114e-06  2.6465e-07  1.3274e-04  1.0457e-04  0:04:34 1601
   400  3.6152e-04  1.2070e-06  2.6358e-07  1.3151e-04  1.0396e-04  0:03:39 1600
   401  3.6211e-04  1.2009e-06  2.6241e-07  1.3027e-04  1.0334e-04  0:02:55 1599
   402  3.6318e-04  1.1963e-06  2.6076e-07  1.2906e-04  1.0273e-04  0:02:20 1598
   403  3.6211e-04  1.1906e-06  2.5950e-07  1.2785e-04  1.0212e-04  0:07:11 1597
   404  3.6386e-04  1.1859e-06  2.5758e-07  1.2666e-04  1.0150e-04  0:05:45 1596
   405  3.6091e-04  1.1814e-06  2.5679e-07  1.2546e-04  1.0087e-04  0:04:36 1595
   406  3.6391e-04  1.1762e-06  2.5575e-07  1.2426e-04  1.0025e-04  0:03:40 1594
   407  3.6451e-04  1.1713e-06  2.5475e-07  1.2308e-04  9.9605e-05  0:08:15 1593

  iter  continuity  x-velocity  y-velocity           k       omega     time/iter
   408  3.6111e-04  1.1668e-06  2.5376e-07  1.2191e-04  9.8979e-05  0:06:36 1592
   409  3.6197e-04  1.1612e-06  2.5346e-07  1.2072e-04  9.8345e-05  0:05:16 1591
   410  3.6058e-04  1.1577e-06  2.5300e-07  1.1954e-04  9.7719e-05  0:04:13 1590
   411  3.6034e-04  1.1533e-06  2.5223e-07  1.1837e-04  9.7102e-05  0:03:22 1589
   412  3.6051e-04  1.1489e-06  2.5189e-07  1.1722e-04  9.6468e-05  0:02:42 1588
   413  3.5761e-04  1.1442e-06  2.5154e-07  1.1608e-04  9.5849e-05  0:02:09 1587
   414  3.6085e-04  1.1410e-06  2.5149e-07  1.1494e-04  9.5212e-05  0:07:01 1586
   415  3.6049e-04  1.1362e-06  2.5123e-07  1.1382e-04  9.4587e-05  0:05:36 1585
   416  3.5845e-04  1.1330e-06  2.5054e-07  1.1271e-04  9.3964e-05  0:04:29 1584
   417  3.5818e-04  1.1297e-06  2.4988e-07  1.1160e-04  9.3348e-05  0:03:35 1583
   418  3.5578e-04  1.1269e-06  2.4922e-07  1.1052e-04  9.2743e-05  0:02:52 1582

  iter  continuity  x-velocity  y-velocity           k       omega     time/iter
   419  3.5428e-04  1.1241e-06  2.4940e-07  1.0940e-04  9.2116e-05  0:02:17 1581
   420  3.5589e-04  1.1194e-06  2.4713e-07  1.0831e-04  9.1487e-05  0:07:06 1580
   421  3.5641e-04  1.1168e-06  2.4975e-07  1.0721e-04  9.0861e-05  0:05:40 1579
   422  3.5146e-04  1.1134e-06  2.4733e-07  1.0613e-04  9.0259e-05  0:04:32 1578
   423  3.5190e-04  1.1109e-06  2.5057e-07  1.0506e-04  8.9642e-05  0:03:38 1577
   424  3.5422e-04  1.1089e-06  2.5017e-07  1.0399e-04  8.9047e-05  0:02:54 1576
   425  3.5470e-04  1.1064e-06  2.5000e-07  1.0293e-04  8.8452e-05  0:02:19 1575
   426  3.5501e-04  1.1040e-06  2.4954e-07  1.0189e-04  8.7845e-05  0:07:06 1574
   427  3.5539e-04  1.1010e-06  2.4995e-07  1.0084e-04  8.7215e-05  0:05:41 1573
   428  3.5456e-04  1.0988e-06  2.4971e-07  9.9814e-05  8.6591e-05  0:04:32 1572
   429  3.5588e-04  1.0958e-06  2.5005e-07  9.8795e-05  8.5955e-05  0:03:38 1571

  iter  continuity  x-velocity  y-velocity           k       omega     time/iter
   430  3.5750e-04  1.0930e-06  2.5013e-07  9.7787e-05  8.5326e-05  0:02:54 1570
   431  3.5099e-04  1.0896e-06  2.5013e-07  9.6795e-05  8.4695e-05  0:02:19 1569
   432  3.5419e-04  1.0879e-06  2.4994e-07  9.5800e-05  8.4105e-05  0:01:51 1568
   433  3.5624e-04  1.0852e-06  2.5078e-07  9.4812e-05  8.3475e-05  0:06:42 1567
   434  3.5135e-04  1.0818e-06  2.5023e-07  9.3836e-05  8.2876e-05  0:05:22 1566
   435  3.5119e-04  1.0791e-06  2.5011e-07  9.2875e-05  8.2260e-05  0:04:17 1565
   436  3.5030e-04  1.0754e-06  2.4772e-07  9.1927e-05  8.1658e-05  0:03:26 1564
   437  3.5167e-04  1.0737e-06  2.5067e-07  9.0996e-05  8.1050e-05  0:02:44 1563
   438  3.4964e-04  1.0708e-06  2.4824e-07  9.0069e-05  8.0460e-05  0:02:11 1562
   439  3.5178e-04  1.0705e-06  2.5073e-07  8.9156e-05  7.9875e-05  0:06:57 1561
   440  3.4546e-04  1.0665e-06  2.4846e-07  8.8243e-05  7.9300e-05  0:05:34 1560

  iter  continuity  x-velocity  y-velocity           k       omega     time/iter
   441  3.4866e-04  1.0651e-06  2.5103e-07  8.7344e-05  7.8713e-05  0:04:27 1559
   442  3.4702e-04  1.0630e-06  2.4809e-07  8.6451e-05  7.8148e-05  0:03:33 1558
   443  3.4677e-04  1.0618e-06  2.5041e-07  8.5565e-05  7.7593e-05  0:02:50 1557
   444  3.4716e-04  1.0594e-06  2.4776e-07  8.4695e-05  7.7041e-05  0:02:16 1556
   445  3.5028e-04  1.0595e-06  2.5023e-07  8.3811e-05  7.6491e-05  0:07:00 1555
   446  3.5003e-04  1.0563e-06  2.4700e-07  8.2942e-05  7.5946e-05  0:05:36 1554
   447  3.5327e-04  1.0565e-06  2.4954e-07  8.2080e-05  7.5402e-05  0:04:28 1553
   448  3.5064e-04  1.0535e-06  2.4666e-07  8.1213e-05  7.4877e-05  0:03:35 1552
   449  3.5132e-04  1.0523e-06  2.4880e-07  8.0359e-05  7.4341e-05  0:02:52 1551
   450  3.4900e-04  1.0496e-06  2.4552e-07  7.9516e-05  7.3805e-05  0:02:17 1550
   451  3.5190e-04  1.0481e-06  2.4802e-07  7.8685e-05  7.3275e-05  0:06:59 1549

  iter  continuity  x-velocity  y-velocity           k       omega     time/iter
   452  3.5185e-04  1.0451e-06  2.4495e-07  7.7874e-05  7.2740e-05  0:05:35 1548
   453  3.4839e-04  1.0428e-06  2.4491e-07  7.7067e-05  7.2210e-05  0:04:28 1547
   454  3.5240e-04  1.0414e-06  2.4468e-07  7.6275e-05  7.1684e-05  0:03:34 1546
   455  3.5081e-04  1.0393e-06  2.4419e-07  7.5480e-05  7.1163e-05  0:02:51 1545
   456  3.4842e-04  1.0365e-06  2.4140e-07  7.4701e-05  7.0641e-05  0:07:26 1544
   457  3.5143e-04  1.0343e-06  2.4256e-07  7.3926e-05  7.0121e-05  0:05:56 1543
   458  3.4788e-04  1.0323e-06  2.4000e-07  7.3159e-05  6.9607e-05  0:04:45 1542
   459  3.4650e-04  1.0308e-06  2.4117e-07  7.2396e-05  6.9095e-05  0:03:48 1541
   460  3.4842e-04  1.0288e-06  2.3862e-07  7.1650e-05  6.8595e-05  0:03:02 1540
   461  3.4907e-04  1.0275e-06  2.4051e-07  7.0898e-05  6.8104e-05  0:02:26 1539
   462  3.4685e-04  1.0256e-06  2.3704e-07  7.0172e-05  6.7606e-05  0:07:04 1538

  iter  continuity  x-velocity  y-velocity           k       omega     time/iter
   463  3.4978e-04  1.0248e-06  2.3715e-07  6.9428e-05  6.7119e-05  0:05:39 1537
   464  3.5172e-04  1.0232e-06  2.3553e-07  6.8713e-05  6.6637e-05  0:04:31 1536
   465  3.5039e-04  1.0211e-06  2.3480e-07  6.7985e-05  6.6161e-05  0:03:37 1535
   466  3.5120e-04  1.0190e-06  2.3426e-07  6.7279e-05  6.5686e-05  0:02:53 1534
   467  3.5583e-04  1.0171e-06  2.3300e-07  6.6577e-05  6.5228e-05  0:02:18 1533
   468  3.5429e-04  1.0137e-06  2.3250e-07  6.5883e-05  6.4778e-05  0:01:51 1532
   469  3.5547e-04  1.0122e-06  2.3156e-07  6.5188e-05  6.4317e-05  0:06:35 1531
   470  3.5506e-04  1.0096e-06  2.3023e-07  6.4505e-05  6.3878e-05  0:05:16 1530
   471  3.5769e-04  1.0075e-06  2.2852e-07  6.3833e-05  6.3434e-05  0:04:12 1529
   472  3.5619e-04  1.0063e-06  2.2679e-07  6.3164e-05  6.2996e-05  0:03:22 1528
   473  3.5949e-04  1.0044e-06  2.2536e-07  6.2488e-05  6.2555e-05  0:02:41 1527

  iter  continuity  x-velocity  y-velocity           k       omega     time/iter
   474  3.5934e-04  1.0015e-06  2.2403e-07  6.1834e-05  6.2133e-05  0:02:09 1526
   475  3.5743e-04  1.0003e-06  2.2214e-07  6.1154e-05  6.1713e-05  0:06:48 1525
   476  3.6224e-04  9.9751e-07  2.2100e-07  6.0504e-05  6.1303e-05  0:05:26 1524
   477  3.6285e-04  9.9545e-07  2.1938e-07  5.9847e-05  6.0883e-05  0:04:21 1523
   478  3.6194e-04  9.9243e-07  2.1768e-07  5.9191e-05  6.0473e-05  0:03:29 1522
   479  3.6513e-04  9.9004e-07  2.1611e-07  5.8546e-05  6.0048e-05  0:02:47 1521
   480  3.6508e-04  9.8825e-07  2.1438e-07  5.7906e-05  5.9640e-05  0:02:13 1520
   481  3.6609e-04  9.8586e-07  2.1302e-07  5.7269e-05  5.9235e-05  0:06:50 1519
   482  3.6694e-04  9.8347e-07  2.1173e-07  5.6633e-05  5.8839e-05  0:05:28 1518
   483  3.7005e-04  9.8005e-07  2.1026e-07  5.6007e-05  5.8442e-05  0:04:22 1517
   484  3.6828e-04  9.7590e-07  2.0859e-07  5.5389e-05  5.8062e-05  0:03:30 1516

  iter  continuity  x-velocity  y-velocity           k       omega     time/iter
   485  3.7137e-04  9.7265e-07  2.0655e-07  5.4770e-05  5.7695e-05  0:02:48 1515
   486  3.7377e-04  9.7044e-07  2.0452e-07  5.4158e-05  5.7314e-05  0:02:14 1514
   487  3.7706e-04  9.6741e-07  2.0297e-07  5.3546e-05  5.6936e-05  0:06:50 1513
   488  3.7561e-04  9.6527e-07  2.0123e-07  5.2946e-05  5.6563e-05  0:05:28 1512
   489  3.7641e-04  9.6388e-07  1.9953e-07  5.2339e-05  5.6194e-05  0:04:22 1511
   490  3.7772e-04  9.6028e-07  1.9719e-07  5.1744e-05  5.5834e-05  0:03:29 1510
   491  3.7436e-04  9.5736e-07  1.9534e-07  5.1151e-05  5.5472e-05  0:02:47 1509
   492  3.6905e-04  9.5371e-07  1.9383e-07  5.0573e-05  5.5112e-05  0:02:14 1508
   493  3.6917e-04  9.5004e-07  1.9223e-07  4.9998e-05  5.4755e-05  0:01:47 1507
   494  3.6805e-04  9.4671e-07  1.9012e-07  4.9429e-05  5.4405e-05  0:06:27 1506
   495  3.7071e-04  9.4321e-07  1.8801e-07  4.8861e-05  5.4060e-05  0:05:09 1505

  iter  continuity  x-velocity  y-velocity           k       omega     time/iter
   496  3.6686e-04  9.3911e-07  1.8599e-07  4.8303e-05  5.3702e-05  0:04:07 1504
   497  3.6882e-04  9.3596e-07  1.8396e-07  4.7749e-05  5.3362e-05  0:03:18 1503
   498  3.6816e-04  9.3194e-07  1.8202e-07  4.7195e-05  5.3017e-05  0:07:38 1502
   499  3.6444e-04  9.2806e-07  1.8030e-07  4.6644e-05  5.2672e-05  0:06:06 1501
   500  3.6653e-04  9.2503e-07  1.7801e-07  4.6112e-05  5.2327e-05  0:04:53 1500
   501  3.6399e-04  9.2159e-07  1.7548e-07  4.5580e-05  5.1997e-05  0:03:54 1499
   502  3.6789e-04  9.1762e-07  1.7446e-07  4.5054e-05  5.1676e-05  0:03:07 1498
   503  3.6618e-04  9.1453e-07  1.7217e-07  4.4528e-05  5.1348e-05  0:02:30 1497
   504  3.6639e-04  9.1091e-07  1.7024e-07  4.4013e-05  5.1043e-05  0:06:59 1496
   505  3.6620e-04  9.0724e-07  1.6794e-07  4.3502e-05  5.0724e-05  0:05:35 1495
   506  3.6589e-04  9.0382e-07  1.6675e-07  4.3005e-05  5.0412e-05  0:04:28 1494

  iter  continuity  x-velocity  y-velocity           k       omega     time/iter
   507  3.6543e-04  8.9960e-07  1.6463e-07  4.2500e-05  5.0102e-05  0:03:34 1493
   508  3.6744e-04  8.9654e-07  1.6326e-07  4.2012e-05  4.9781e-05  0:02:51 1492
   509  3.6973e-04  8.9389e-07  1.6136e-07  4.1521e-05  4.9458e-05  0:02:17 1491
   510  3.6862e-04  8.9048e-07  1.6021e-07  4.1048e-05  4.9158e-05  0:06:47 1490
   511  3.6935e-04  8.8609e-07  1.5895e-07  4.0565e-05  4.8850e-05  0:05:26 1489
   512  3.6594e-04  8.8242e-07  1.5750e-07  4.0096e-05  4.8550e-05  0:04:20 1488
   513  3.6650e-04  8.7876e-07  1.5646e-07  3.9623e-05  4.8247e-05  0:03:28 1487
   514  3.6582e-04  8.7562e-07  1.5492e-07  3.9172e-05  4.7951e-05  0:02:46 1486
   515  3.6735e-04  8.7209e-07  1.5435e-07  3.8720e-05  4.7656e-05  0:02:13 1485
   516  3.6422e-04  8.6950e-07  1.5310e-07  3.8266e-05  4.7372e-05  0:06:43 1484
   517  3.6636e-04  8.6597e-07  1.5129e-07  3.7825e-05  4.7086e-05  0:05:22 1483

  iter  continuity  x-velocity  y-velocity           k       omega     time/iter
   518  3.6669e-04  8.6334e-07  1.5045e-07  3.7381e-05  4.6805e-05  0:04:18 1482
   519  3.6477e-04  8.5969e-07  1.4931e-07  3.6942e-05  4.6530e-05  0:03:26 1481
   520  3.6236e-04  8.5674e-07  1.4849e-07  3.6516e-05  4.6260e-05  0:02:45 1480
   521  3.6271e-04  8.5377e-07  1.4697e-07  3.6088e-05  4.5991e-05  0:02:12 1479
   522  3.6149e-04  8.5110e-07  1.4500e-07  3.5671e-05  4.5730e-05  0:06:41 1478
   523  3.6097e-04  8.4739e-07  1.4418e-07  3.5257e-05  4.5470e-05  0:05:20 1477
   524  3.6098e-04  8.4436e-07  1.4394e-07  3.4858e-05  4.5211e-05  0:04:16 1476
   525  3.6146e-04  8.4130e-07  1.4313e-07  3.4452e-05  4.4961e-05  0:03:25 1475
   526  3.5937e-04  8.3843e-07  1.4252e-07  3.4054e-05  4.4712e-05  0:02:44 1474
   527  3.5956e-04  8.3534e-07  1.4172e-07  3.3654e-05  4.4467e-05  0:02:11 1473
   528  3.6021e-04  8.3214e-07  1.4125e-07  3.3262e-05  4.4234e-05  0:01:45 1472

  iter  continuity  x-velocity  y-velocity           k       omega     time/iter
   529  3.5835e-04  8.3039e-07  1.4033e-07  3.2869e-05  4.3993e-05  0:06:18 1471
   530  3.5821e-04  8.2681e-07  1.3970e-07  3.2487e-05  4.3770e-05  0:05:02 1470
   531  3.5770e-04  8.2410e-07  1.3916e-07  3.2109e-05  4.3530e-05  0:04:02 1469
   532  3.5371e-04  8.2110e-07  1.3835e-07  3.1734e-05  4.3312e-05  0:03:13 1468
   533  3.5277e-04  8.1782e-07  1.3797e-07  3.1363e-05  4.3091e-05  0:02:34 1467
   534  3.5252e-04  8.1533e-07  1.3748e-07  3.1008e-05  4.2873e-05  0:02:03 1466
   535  3.4803e-04  8.1153e-07  1.3686e-07  3.0659e-05  4.2654e-05  0:06:32 1465
   536  3.4878e-04  8.0843e-07  1.3636e-07  3.0322e-05  4.2442e-05  0:05:13 1464
   537  3.4652e-04  8.0549e-07  1.3586e-07  2.9973e-05  4.2228e-05  0:04:10 1463
   538  3.4423e-04  8.0220e-07  1.3543e-07  2.9628e-05  4.2021e-05  0:03:20 1462
   539  3.4241e-04  7.9938e-07  1.3477e-07  2.9285e-05  4.1814e-05  0:02:40 1461

  iter  continuity  x-velocity  y-velocity           k       omega     time/iter
   540  3.4371e-04  7.9567e-07  1.3451e-07  2.8956e-05  4.1610e-05  0:02:08 1460
   541  3.4151e-04  7.9380e-07  1.3434e-07  2.8631e-05  4.1406e-05  0:01:42 1459
   542  3.3846e-04  7.9102e-07  1.3395e-07  2.8318e-05  4.1216e-05  0:06:13 1458
   543  3.3803e-04  7.8818e-07  1.3290e-07  2.7990e-05  4.1017e-05  0:04:58 1457
   544  3.3480e-04  7.8603e-07  1.3233e-07  2.7683e-05  4.0833e-05  0:03:59 1456
   545  3.3439e-04  7.8274e-07  1.3128e-07  2.7365e-05  4.0637e-05  0:03:11 1455
   546  3.3352e-04  7.8152e-07  1.3083e-07  2.7065e-05  4.0459e-05  0:07:23 1454
   547  3.3281e-04  7.7920e-07  1.3026e-07  2.6769e-05  4.0268e-05  0:05:54 1453
   548  3.3099e-04  7.7596e-07  1.3023e-07  2.6477e-05  4.0087e-05  0:04:43 1452
   549  3.3108e-04  7.7410e-07  1.3001e-07  2.6188e-05  3.9906e-05  0:03:47 1451
   550  3.2979e-04  7.7114e-07  1.2974e-07  2.5901e-05  3.9732e-05  0:03:01 1450

  iter  continuity  x-velocity  y-velocity           k       omega     time/iter
   551  3.3276e-04  7.6828e-07  1.2984e-07  2.5617e-05  3.9545e-05  0:02:25 1449
   552  3.2844e-04  7.6534e-07  1.3032e-07  2.5337e-05  3.9374e-05  0:06:45 1448
   553  3.2832e-04  7.6293e-07  1.2963e-07  2.5062e-05  3.9193e-05  0:05:24 1447
   554  3.2621e-04  7.5944e-07  1.2890e-07  2.4800e-05  3.9038e-05  0:04:19 1446
   555  3.2888e-04  7.5741e-07  1.2803e-07  2.4534e-05  3.8856e-05  0:03:27 1445
   556  3.2490e-04  7.5477e-07  1.2753e-07  2.4272e-05  3.8691e-05  0:02:46 1444
   557  3.2565e-04  7.5128e-07  1.2724e-07  2.4017e-05  3.8518e-05  0:02:12 1443
   558  3.2698e-04  7.4861e-07  1.2727e-07  2.3775e-05  3.8358e-05  0:06:34 1442
   559  3.2437e-04  7.4560e-07  1.2691e-07  2.3521e-05  3.8200e-05  0:05:15 1441
   560  3.2161e-04  7.4432e-07  1.2619e-07  2.3283e-05  3.8053e-05  0:04:12 1440
   561  3.2412e-04  7.4083e-07  1.2602e-07  2.3041e-05  3.7882e-05  0:03:21 1439

  iter  continuity  x-velocity  y-velocity           k       omega     time/iter
   562  3.2261e-04  7.3877e-07  1.2565e-07  2.2807e-05  3.7728e-05  0:02:41 1438
   563  3.2311e-04  7.3639e-07  1.2539e-07  2.2580e-05  3.7573e-05  0:02:09 1437
   564  3.2233e-04  7.3394e-07  1.2507e-07  2.2341e-05  3.7430e-05  0:06:30 1436
   565  3.1934e-04  7.3138e-07  1.2534e-07  2.2112e-05  3.7266e-05  0:05:12 1435
   566  3.1415e-04  7.2798e-07  1.2546e-07  2.1880e-05  3.7113e-05  0:04:09 1434
   567  3.1601e-04  7.2608e-07  1.2473e-07  2.1657e-05  3.6960e-05  0:03:19 1433
   568  3.1427e-04  7.2424e-07  1.2446e-07  2.1443e-05  3.6819e-05  0:02:39 1432
   569  3.1399e-04  7.2125e-07  1.2426e-07  2.1221e-05  3.6661e-05  0:02:07 1431
   570  3.1348e-04  7.1942e-07  1.2332e-07  2.1014e-05  3.6517e-05  0:06:28 1430
   571  3.1211e-04  7.1719e-07  1.2293e-07  2.0806e-05  3.6369e-05  0:05:10 1429
   572  3.0981e-04  7.1536e-07  1.2182e-07  2.0604e-05  3.6228e-05  0:04:08 1428

  iter  continuity  x-velocity  y-velocity           k       omega     time/iter
   573  3.0977e-04  7.1265e-07  1.2131e-07  2.0400e-05  3.6041e-05  0:03:18 1427
   574  3.1179e-04  7.1025e-07  1.2100e-07  2.0195e-05  3.5861e-05  0:02:38 1426
   575  3.1123e-04  7.0722e-07  1.2122e-07  1.9999e-05  3.5679e-05  0:02:07 1425
   576  3.0910e-04  7.0455e-07  1.2073e-07  1.9816e-05  3.5511e-05  0:06:26 1424
   577  3.0851e-04  7.0105e-07  1.2056e-07  1.9631e-05  3.5328e-05  0:05:09 1423
   578  3.0811e-04  6.9937e-07  1.1956e-07  1.9451e-05  3.5161e-05  0:04:07 1422
   579  3.1008e-04  6.9644e-07  1.1907e-07  1.9270e-05  3.4988e-05  0:03:17 1421
   580  3.0637e-04  6.9360e-07  1.1825e-07  1.9095e-05  3.4822e-05  0:02:38 1420
   581  3.0825e-04  6.9092e-07  1.1771e-07  1.8921e-05  3.4658e-05  0:02:06 1419
   582  3.0712e-04  6.8931e-07  1.1708e-07  1.8750e-05  3.4497e-05  0:06:24 1418
   583  3.0514e-04  6.8561e-07  1.1687e-07  1.8580e-05  3.4337e-05  0:05:07 1417

  iter  continuity  x-velocity  y-velocity           k       omega     time/iter
   584  3.0269e-04  6.8264e-07  1.1596e-07  1.8419e-05  3.4184e-05  0:04:06 1416
   585  3.0364e-04  6.8072e-07  1.1519e-07  1.8258e-05  3.4029e-05  0:03:16 1415
   586  3.0355e-04  6.7875e-07  1.1463e-07  1.8103e-05  3.3875e-05  0:02:37 1414
   587  3.0079e-04  6.7591e-07  1.1405e-07  1.7942e-05  3.3721e-05  0:06:48 1413
   588  2.9926e-04  6.7297e-07  1.1226e-07  1.7790e-05  3.3571e-05  0:05:26 1412
   589  2.9496e-04  6.6999e-07  1.1176e-07  1.7636e-05  3.3419e-05  0:04:21 1411
   590  2.9291e-04  6.6728e-07  1.1153e-07  1.7481e-05  3.3274e-05  0:03:29 1410
   591  2.9435e-04  6.6492e-07  1.1126e-07  1.7337e-05  3.3121e-05  0:02:47 1409
   592  2.9252e-04  6.6226e-07  1.1026e-07  1.7188e-05  3.2978e-05  0:06:55 1408
   593  2.9046e-04  6.5976e-07  1.0997e-07  1.7046e-05  3.2832e-05  0:05:32 1407
   594  2.8910e-04  6.5675e-07  1.0951e-07  1.6902e-05  3.2694e-05  0:04:25 1406

  iter  continuity  x-velocity  y-velocity           k       omega     time/iter
   595  2.8914e-04  6.5300e-07  1.0895e-07  1.6757e-05  3.2544e-05  0:03:32 1405
   596  2.8913e-04  6.4982e-07  1.0856e-07  1.6613e-05  3.2409e-05  0:02:49 1404
   597  2.8512e-04  6.4617e-07  1.0770e-07  1.6473e-05  3.2267e-05  0:02:15 1403
   598  2.8429e-04  6.4390e-07  1.0670e-07  1.6338e-05  3.2130e-05  0:06:29 1402
   599  2.8326e-04  6.4081e-07  1.0599e-07  1.6196e-05  3.1989e-05  0:05:11 1401
   600  2.8384e-04  6.3693e-07  1.0542e-07  1.6058e-05  3.1856e-05  0:04:08 1400
   601  2.8186e-04  6.3536e-07  1.0472e-07  1.5922e-05  3.1714e-05  0:03:19 1399
   602  2.8186e-04  6.3231e-07  1.0409e-07  1.5789e-05  3.1590e-05  0:02:39 1398
   603  2.7931e-04  6.2926e-07  1.0345e-07  1.5651e-05  3.1447e-05  0:02:07 1397
   604  2.7767e-04  6.2585e-07  1.0281e-07  1.5520e-05  3.1322e-05  0:06:21 1396
   605  2.7526e-04  6.2331e-07  1.0171e-07  1.5386e-05  3.1183e-05  0:05:04 1395

  iter  continuity  x-velocity  y-velocity           k       omega     time/iter
   606  2.7426e-04  6.2023e-07  1.0123e-07  1.5256e-05  3.1064e-05  0:04:03 1394
   607  2.7338e-04  6.1674e-07  1.0061e-07  1.5124e-05  3.0923e-05  0:03:14 1393
   608  2.7327e-04  6.1351e-07  1.0027e-07  1.4996e-05  3.0802e-05  0:02:35 1392
   609  2.7104e-04  6.1025e-07  9.9599e-08  1.4865e-05  3.0667e-05  0:02:04 1391
   610  2.7178e-04  6.0717e-07  9.8922e-08  1.4737e-05  3.0546e-05  0:06:17 1390
   611  2.6846e-04  6.0417e-07  9.8402e-08  1.4611e-05  3.0416e-05  0:05:02 1389
   612  2.6800e-04  6.0139e-07  9.7411e-08  1.4489e-05  3.0295e-05  0:04:01 1388
   613  2.6607e-04  5.9802e-07  9.7090e-08  1.4363e-05  3.0162e-05  0:03:13 1387
   614  2.6638e-04  5.9463e-07  9.6130e-08  1.4241e-05  3.0046e-05  0:02:34 1386
   615  2.6267e-04  5.9196e-07  9.5580e-08  1.4117e-05  2.9913e-05  0:02:03 1385
   616  2.6522e-04  5.8878e-07  9.4869e-08  1.3997e-05  2.9796e-05  0:06:15 1384

  iter  continuity  x-velocity  y-velocity           k       omega     time/iter
   617  2.6232e-04  5.8628e-07  9.4047e-08  1.3876e-05  2.9669e-05  0:05:00 1383
   618  2.6041e-04  5.8326e-07  9.2461e-08  1.3757e-05  2.9553e-05  0:04:00 1382
   619  2.6243e-04  5.8003e-07  9.3152e-08  1.3639e-05  2.9422e-05  0:03:12 1381
   620  2.5854e-04  5.7732e-07  9.1589e-08  1.3520e-05  2.9305e-05  0:02:33 1380
   621  2.5910e-04  5.7409e-07  9.2471e-08  1.3403e-05  2.9176e-05  0:02:03 1379
   622  2.6056e-04  5.7138e-07  9.1969e-08  1.3286e-05  2.9061e-05  0:06:14 1378
   623  2.6046e-04  5.6849e-07  9.1413e-08  1.3170e-05  2.8934e-05  0:04:59 1377
   624  2.5609e-04  5.6639e-07  9.0453e-08  1.3058e-05  2.8819e-05  0:03:59 1376
   625  2.5679e-04  5.6346e-07  8.9468e-08  1.2939e-05  2.8689e-05  0:03:11 1375
   626  2.5669e-04  5.6050e-07  8.8692e-08  1.2830e-05  2.8579e-05  0:02:33 1374
   627  2.5659e-04  5.5769e-07  8.8628e-08  1.2715e-05  2.8453e-05  0:02:02 1373

  iter  continuity  x-velocity  y-velocity           k       omega     time/iter
   628  2.5505e-04  5.5553e-07  8.6992e-08  1.2607e-05  2.8340e-05  0:06:12 1372
   629  2.5505e-04  5.5168e-07  8.6279e-08  1.2495e-05  2.8213e-05  0:04:57 1371
   630  2.5425e-04  5.4918e-07  8.6248e-08  1.2384e-05  2.8107e-05  0:03:58 1370
   631  2.5092e-04  5.4618e-07  8.5684e-08  1.2274e-05  2.7976e-05  0:03:10 1369
   632  2.5291e-04  5.4305e-07  8.5231e-08  1.2164e-05  2.7868e-05  0:02:32 1368
   633  2.5135e-04  5.4063e-07  8.4622e-08  1.2056e-05  2.7741e-05  0:06:35 1367
   634  2.4973e-04  5.3713e-07  8.4039e-08  1.1945e-05  2.7631e-05  0:05:16 1366
   635  2.4910e-04  5.3498e-07  8.3731e-08  1.1841e-05  2.7504e-05  0:04:12 1365
   636  2.5186e-04  5.3289e-07  8.3065e-08  1.1738e-05  2.7397e-05  0:03:22 1364
   637  2.4758e-04  5.2972e-07  8.2553e-08  1.1631e-05  2.7271e-05  0:02:41 1363
   638  2.4737e-04  5.2800e-07  8.1990e-08  1.1527e-05  2.7163e-05  0:06:41 1362

  iter  continuity  x-velocity  y-velocity           k       omega     time/iter
   639  2.4911e-04  5.2481e-07  8.2040e-08  1.1421e-05  2.7037e-05  0:05:21 1361
   640  2.4792e-04  5.2348e-07  8.1185e-08  1.1317e-05  2.6926e-05  0:04:16 1360
   641  2.4660e-04  5.2030e-07  8.0873e-08  1.1217e-05  2.6803e-05  0:03:25 1359
   642  2.4295e-04  5.1768e-07  8.0574e-08  1.1108e-05  2.6692e-05  0:02:44 1358
   643  2.4661e-04  5.1584e-07  8.0105e-08  1.1012e-05  2.6568e-05  0:06:42 1357
   644  2.4388e-04  5.1315e-07  8.0221e-08  1.0909e-05  2.6462e-05  0:05:22 1356
   645  2.4129e-04  5.1042e-07  7.9795e-08  1.0809e-05  2.6333e-05  0:04:17 1355
   646  2.4488e-04  5.0766e-07  7.9347e-08  1.0710e-05  2.6229e-05  0:03:26 1354
   647  2.4246e-04  5.0634e-07  7.9305e-08  1.0610e-05  2.6102e-05  0:02:44 1353
   648  2.4163e-04  5.0369e-07  7.8780e-08  1.0508e-05  2.5998e-05  0:02:11 1352
   649  2.4062e-04  5.0084e-07  7.8109e-08  1.0414e-05  2.5873e-05  0:06:15 1351

  iter  continuity  x-velocity  y-velocity           k       omega     time/iter
   650  2.4054e-04  4.9822e-07  7.7512e-08  1.0316e-05  2.5765e-05  0:05:00 1350
   651  2.4099e-04  4.9581e-07  7.7380e-08  1.0213e-05  2.5638e-05  0:04:00 1349
   652  2.3698e-04  4.9354e-07  7.6698e-08  1.0119e-05  2.5533e-05  0:03:12 1348
   653  2.4038e-04  4.9050e-07  7.6467e-08  1.0023e-05  2.5407e-05  0:02:33 1347
   654  2.4057e-04  4.8749e-07  7.6452e-08  9.9265e-06  2.5299e-05  0:02:02 1346
   655  2.3903e-04  4.8489e-07  7.6256e-08  9.8394e-06  2.5174e-05  0:06:07 1345
   656  2.3929e-04  4.8248e-07  7.5645e-08  9.7460e-06  2.5068e-05  0:04:53 1344
   657  2.3570e-04  4.8030e-07  7.5165e-08  9.6527e-06  2.4940e-05  0:03:54 1343
   658  2.3918e-04  4.7783e-07  7.4433e-08  9.5575e-06  2.4834e-05  0:03:07 1342
   659  2.3986e-04  4.7610e-07  7.4020e-08  9.4669e-06  2.4706e-05  0:02:30 1341
   660  2.3479e-04  4.7382e-07  7.3651e-08  9.3750e-06  2.4602e-05  0:02:00 1340

  iter  continuity  x-velocity  y-velocity           k       omega     time/iter
   661  2.3478e-04  4.7030e-07  7.2978e-08  9.2802e-06  2.4479e-05  0:06:04 1339
   662  2.3500e-04  4.6846e-07  7.2718e-08  9.1895e-06  2.4369e-05  0:04:51 1338
   663  2.3354e-04  4.6588e-07  7.2718e-08  9.0951e-06  2.4249e-05  0:03:52 1337
   664  2.3367e-04  4.6485e-07  7.2046e-08  9.0050e-06  2.4138e-05  0:03:06 1336
   665  2.3190e-04  4.6333e-07  7.1752e-08  8.9146e-06  2.4013e-05  0:02:28 1335
   666  2.3164e-04  4.6019e-07  7.1196e-08  8.8256e-06  2.3906e-05  0:01:59 1334
   667  2.3286e-04  4.5924e-07  7.0783e-08  8.7352e-06  2.3783e-05  0:06:01 1333
   668  2.3045e-04  4.5708e-07  7.0681e-08  8.6478e-06  2.3674e-05  0:04:49 1332
   669  2.3374e-04  4.5538e-07  7.0343e-08  8.5581e-06  2.3554e-05  0:03:51 1331
   670  2.2799e-04  4.5294e-07  7.0398e-08  8.4725e-06  2.3448e-05  0:03:05 1330
   671  2.3100e-04  4.5092e-07  7.0244e-08  8.3872e-06  2.3324e-05  0:02:28 1329

  iter  continuity  x-velocity  y-velocity           k       omega     time/iter
   672  2.2974e-04  4.4918e-07  7.0159e-08  8.3024e-06  2.3216e-05  0:06:24 1328
   673  2.3179e-04  4.4790e-07  6.9907e-08  8.2171e-06  2.3094e-05  0:05:07 1327
   674  2.3023e-04  4.4577e-07  6.9691e-08  8.1306e-06  2.2988e-05  0:04:05 1326
   675  2.2852e-04  4.4388e-07  6.9175e-08  8.0367e-06  2.2864e-05  0:03:16 1325
   676  2.2864e-04  4.4215e-07  7.0152e-08  7.9515e-06  2.2761e-05  0:02:37 1324
   677  2.2808e-04  4.3994e-07  6.9415e-08  7.8655e-06  2.2639e-05  0:06:30 1323
   678  2.2624e-04  4.3795e-07  6.8880e-08  7.7782e-06  2.2536e-05  0:05:12 1322
   679  2.2658e-04  4.3625e-07  6.8389e-08  7.7007e-06  2.2413e-05  0:04:09 1321
   680  2.2691e-04  4.3467e-07  6.8074e-08  7.6124e-06  2.2322e-05  0:03:19 1320
   681  2.2916e-04  4.3285e-07  6.7902e-08  7.5317e-06  2.2198e-05  0:07:03 1319
   682  2.2523e-04  4.3026e-07  6.6977e-08  7.4581e-06  2.2106e-05  0:05:38 1318

  iter  continuity  x-velocity  y-velocity           k       omega     time/iter
   683  2.2704e-04  4.3005e-07  6.6563e-08  7.3764e-06  2.1999e-05  0:04:30 1317
   684  2.2622e-04  4.2697e-07  6.6041e-08  7.3035e-06  2.1904e-05  0:03:36 1316
   685  2.2212e-04  4.2512e-07  6.6087e-08  7.2261e-06  2.1798e-05  0:02:53 1315
   686  2.2406e-04  4.2378e-07  6.5705e-08  7.1500e-06  2.1707e-05  0:02:18 1314
   687  2.2577e-04  4.2275e-07  6.6629e-08  7.0797e-06  2.1607e-05  0:06:13 1313
   688  2.2395e-04  4.2044e-07  6.6360e-08  7.0015e-06  2.1505e-05  0:04:58 1312
   689  2.2194e-04  4.1903e-07  6.6052e-08  6.9285e-06  2.1402e-05  0:03:58 1311
   690  2.2215e-04  4.1758e-07  6.5900e-08  6.8587e-06  2.1311e-05  0:03:11 1310
   691  2.2436e-04  4.1623e-07  6.5588e-08  6.7848e-06  2.1206e-05  0:02:32 1309
   692  2.2183e-04  4.1437e-07  6.5274e-08  6.7141e-06  2.1114e-05  0:06:23 1308
   693  2.2314e-04  4.1312e-07  6.4496e-08  6.6395e-06  2.1011e-05  0:05:06 1307

  iter  continuity  x-velocity  y-velocity           k       omega     time/iter
   694  2.2285e-04  4.1177e-07  6.4569e-08  6.5714e-06  2.0920e-05  0:04:05 1306
   695  2.1934e-04  4.0990e-07  6.4291e-08  6.5001e-06  2.0819e-05  0:03:16 1305
   696  2.1971e-04  4.0918e-07  6.3528e-08  6.4316e-06  2.0726e-05  0:02:37 1304
   697  2.1742e-04  4.0668e-07  6.3280e-08  6.3646e-06  2.0629e-05  0:02:05 1303
   698  2.1633e-04  4.0485e-07  6.3150e-08  6.2977e-06  2.0535e-05  0:06:00 1302
   699  2.1646e-04  4.0346e-07  6.2751e-08  6.2276e-06  2.0431e-05  0:04:48 1301
   700  2.1734e-04  4.0235e-07  6.2554e-08  6.1636e-06  2.0340e-05  0:03:50 1300
   701  2.1643e-04  4.0081e-07  6.2784e-08  6.1023e-06  2.0235e-05  0:03:04 1299
   702  2.1694e-04  3.9997e-07  6.2504e-08  6.0360e-06  2.0143e-05  0:02:27 1298
   703  2.1616e-04  3.9768e-07  6.2647e-08  5.9722e-06  2.0041e-05  0:06:17 1297
   704  2.1843e-04  3.9700e-07  6.2370e-08  5.9134e-06  1.9947e-05  0:05:01 1296

  iter  continuity  x-velocity  y-velocity           k       omega     time/iter
   705  2.1494e-04  3.9492e-07  6.2286e-08  5.8515e-06  1.9847e-05  0:04:01 1295
   706  2.1591e-04  3.9441e-07  6.2034e-08  5.7931e-06  1.9756e-05  0:03:13 1294
   707  2.1487e-04  3.9193e-07  6.1962e-08  5.7310e-06  1.9658e-05  0:02:34 1293
   708  2.1288e-04  3.9141e-07  6.1567e-08  5.6754e-06  1.9565e-05  0:02:03 1292
   709  2.1196e-04  3.8926e-07  6.1263e-08  5.6157e-06  1.9466e-05  0:05:57 1291
   710  2.1364e-04  3.8897e-07  6.1257e-08  5.5582e-06  1.9372e-05  0:04:45 1290
   711  2.1385e-04  3.8639e-07  6.1375e-08  5.5016e-06  1.9271e-05  0:03:48 1289
   712  2.1390e-04  3.8580e-07  6.1397e-08  5.4496e-06  1.9177e-05  0:03:02 1288
   713  2.0927e-04  3.8363e-07  6.1411e-08  5.3984e-06  1.9079e-05  0:02:26 1287
   714  2.1052e-04  3.8237e-07  6.1171e-08  5.3506e-06  1.8987e-05  0:06:14 1286
   715  2.1132e-04  3.8055e-07  6.1018e-08  5.2956e-06  1.8884e-05  0:04:59 1285

  iter  continuity  x-velocity  y-velocity           k       omega     time/iter
   716  2.0943e-04  3.7953e-07  6.0852e-08  5.2463e-06  1.8791e-05  0:03:59 1284
   717  2.1132e-04  3.7775e-07  6.0715e-08  5.1899e-06  1.8692e-05  0:03:11 1283
   718  2.0932e-04  3.7692e-07  6.1066e-08  5.1377e-06  1.8598e-05  0:02:33 1282
   719  2.0775e-04  3.7498e-07  6.0379e-08  5.0872e-06  1.8497e-05  0:06:18 1281
   720  2.0760e-04  3.7414e-07  6.0524e-08  5.0375e-06  1.8408e-05  0:05:02 1280
   721  2.0558e-04  3.7338e-07  5.9847e-08  4.9841e-06  1.8306e-05  0:04:02 1279
   722  2.0609e-04  3.7184e-07  5.9547e-08  4.9417e-06  1.8212e-05  0:03:13 1278
   723  2.0920e-04  3.7059e-07  5.9405e-08  4.8979e-06  1.8110e-05  0:02:34 1277
   724  2.0529e-04  3.6909e-07  5.9319e-08  4.8534e-06  1.8020e-05  0:06:19 1276
   725  2.0490e-04  3.6753e-07  5.9020e-08  4.8137e-06  1.7916e-05  0:05:03 1275
   726  2.0325e-04  3.6722e-07  5.8979e-08  4.7735e-06  1.7827e-05  0:04:02 1274

  iter  continuity  x-velocity  y-velocity           k       omega     time/iter
   727  2.0373e-04  3.6498e-07  5.8870e-08  4.7310e-06  1.7728e-05  0:03:13 1273
   728  2.0461e-04  3.6509e-07  5.8684e-08  4.7005e-06  1.7635e-05  0:02:35 1272
   729  2.0468e-04  3.6298e-07  5.8959e-08  4.6688e-06  1.7535e-05  0:06:18 1271
   730  2.0568e-04  3.6222e-07  5.8807e-08  4.6267e-06  1.7445e-05  0:05:02 1270
   731  2.0425e-04  3.6131e-07  5.8533e-08  4.5897e-06  1.7345e-05  0:04:01 1269
   732  2.0330e-04  3.6012e-07  5.8264e-08  4.5544e-06  1.7251e-05  0:03:13 1268
   733  2.0251e-04  3.5873e-07  5.8111e-08  4.5181e-06  1.7151e-05  0:02:34 1267
   734  2.0068e-04  3.5851e-07  5.7860e-08  4.4936e-06  1.7060e-05  0:06:17 1266
   735  2.0345e-04  3.5542e-07  5.7814e-08  4.4607e-06  1.6960e-05  0:05:01 1265
   736  2.0209e-04  3.5490e-07  5.7893e-08  4.4373e-06  1.6872e-05  0:04:01 1264
   737  2.0005e-04  3.5341e-07  5.7882e-08  4.4075e-06  1.6775e-05  0:03:12 1263

  iter  continuity  x-velocity  y-velocity           k       omega     time/iter
   738  1.9888e-04  3.5285e-07  5.7871e-08  4.3875e-06  1.6684e-05  0:02:34 1262
   739  2.0020e-04  3.5188e-07  5.7503e-08  4.3583e-06  1.6582e-05  0:02:03 1261
   740  2.0177e-04  3.5038e-07  5.7304e-08  4.3417e-06  1.6494e-05  0:05:50 1260
   741  1.9963e-04  3.4926e-07  5.7173e-08  4.3212e-06  1.6391e-05  0:04:40 1259
   742  1.9973e-04  3.4802e-07  5.7260e-08  4.3036e-06  1.6302e-05  0:03:44 1258
   743  1.9776e-04  3.4610e-07  5.7054e-08  4.2851e-06  1.6202e-05  0:02:59 1257
   744  2.0047e-04  3.4626e-07  5.6648e-08  4.2736e-06  1.6110e-05  0:02:23 1256
   745  2.0013e-04  3.4432e-07  5.6252e-08  4.2566e-06  1.6010e-05  0:06:05 1255
   746  1.9994e-04  3.4395e-07  5.6837e-08  4.2509e-06  1.5913e-05  0:04:52 1254
[...]
  1818  1.3688e-04  6.2353e-08  1.7015e-08  5.6178e-07  1.0387e-07  0:00:17  182
  1819  1.3674e-04  6.2342e-08  1.6897e-08  5.5430e-07  1.0027e-07  0:00:50  181
  1820  1.3987e-04  6.2499e-08  1.6667e-08  5.5139e-07  1.0344e-07  0:00:40  180
  1821  1.3752e-04  6.2588e-08  1.7008e-08  5.5035e-07  1.0261e-07  0:00:32  179
  1822  1.3656e-04  6.1819e-08  1.6885e-08  5.5310e-07  1.0186e-07  0:00:25  178
  1823  1.3856e-04  6.1840e-08  1.6824e-08  5.5759e-07  9.9173e-08  0:00:20  177
  1824  1.4093e-04  6.3030e-08  1.7014e-08  5.5881e-07  1.0328e-07  0:00:16  176
  1825  1.3655e-04  6.1532e-08  1.7147e-08  5.5958e-07  1.0160e-07  0:00:48  175
  1826  1.3721e-04  6.1715e-08  1.7215e-08  5.6610e-07  1.0237e-07  0:00:38  174

  iter  continuity  x-velocity  y-velocity           k       omega     time/iter
  1827  1.3762e-04  6.1309e-08  1.7120e-08  5.6918e-07  1.0477e-07  0:00:30  173
  1828  1.3627e-04  6.2160e-08  1.6880e-08  5.6609e-07  1.0040e-07  0:00:24  172
  1829  1.3771e-04  6.2392e-08  1.6661e-08  5.6539e-07  1.0061e-07  0:00:19  171
  1830  1.3885e-04  6.1599e-08  1.6720e-08  5.6389e-07  1.0203e-07  0:00:15  170
  1831  1.3653e-04  6.1711e-08  1.6955e-08  5.6452e-07  1.0164e-07  0:00:46  169
  1832  1.3891e-04  6.0314e-08  1.7030e-08  5.6779e-07  1.0084e-07  0:00:36  168
  1833  1.3820e-04  6.1847e-08  1.6705e-08  5.7413e-07  1.0472e-07  0:00:29  167
  1834  1.3910e-04  6.1992e-08  1.6814e-08  5.6308e-07  9.8846e-08  0:00:23  166
  1835  1.3692e-04  6.0577e-08  1.7062e-08  5.6122e-07  1.0116e-07  0:00:51  165
  1836  1.3700e-04  6.0286e-08  1.6966e-08  5.6090e-07  9.9180e-08  0:00:41  164
  1837  1.3755e-04  6.1068e-08  1.6625e-08  5.5766e-07  1.0054e-07  0:00:32  163

  iter  continuity  x-velocity  y-velocity           k       omega     time/iter
  1838  1.3636e-04  6.0864e-08  1.6699e-08  5.6939e-07  9.8972e-08  0:00:26  162
  1839  1.3802e-04  6.0642e-08  1.6797e-08  5.6366e-07  1.0105e-07  0:00:21  161
  1840  1.3846e-04  6.1114e-08  1.6707e-08  5.6372e-07  9.9045e-08  0:00:16  160
  1841  1.3810e-04  5.9909e-08  1.6652e-08  5.6378e-07  1.0048e-07  0:00:45  159
  1842  1.3985e-04  6.1406e-08  1.7075e-08  5.5822e-07  9.7324e-08  0:00:36  158
  1843  1.3886e-04  6.1869e-08  1.7048e-08  5.4972e-07  9.8496e-08  0:00:28  157
  1844  1.3776e-04  6.0510e-08  1.6942e-08  5.4409e-07  9.7689e-08  0:00:22  156
  1845  1.3545e-04  6.0937e-08  1.7016e-08  5.3717e-07  9.5787e-08  0:00:18  155
  1846  1.3718e-04  6.0471e-08  1.6753e-08  5.3588e-07  1.0115e-07  0:00:14  154
  1847  1.3758e-04  6.0201e-08  1.6956e-08  5.3173e-07  9.6388e-08  0:00:42  153
  1848  1.3926e-04  6.0616e-08  1.7124e-08  5.2402e-07  9.9067e-08  0:00:33  152

  iter  continuity  x-velocity  y-velocity           k       omega     time/iter
  1849  1.3783e-04  6.0745e-08  1.6989e-08  5.2537e-07  9.6132e-08  0:00:26  151
  1850  1.3527e-04  6.0634e-08  1.6825e-08  5.3009e-07  9.9899e-08  0:00:21  150
  1851  1.3536e-04  5.9881e-08  1.6631e-08  5.3341e-07  9.6183e-08  0:00:17  149
  1852  1.3724e-04  6.0677e-08  1.6704e-08  5.3454e-07  9.7698e-08  0:00:43  148
  1853  1.3799e-04  6.0395e-08  1.6638e-08  5.3889e-07  9.7012e-08  0:00:34  147
  1854  1.3735e-04  6.0565e-08  1.6711e-08  5.4161e-07  1.0041e-07  0:00:27  146
  1855  1.3658e-04  6.0684e-08  1.7028e-08  5.4580e-07  1.0324e-07  0:00:22  145
  1856  1.3463e-04  6.0212e-08  1.6828e-08  5.4310e-07  9.9132e-08  0:00:17  144
  1857  1.3859e-04  6.2071e-08  1.6736e-08  5.3799e-07  9.6272e-08  0:00:14  143
  1858  1.3676e-04  6.2209e-08  1.6939e-08  5.3481e-07  1.0099e-07  0:00:39  142
  1859  1.3767e-04  6.0858e-08  1.7098e-08  5.3961e-07  9.5532e-08  0:00:31  141

  iter  continuity  x-velocity  y-velocity           k       omega     time/iter
  1860  1.3455e-04  6.0350e-08  1.6850e-08  5.4129e-07  9.9717e-08  0:00:25  140
  1861  1.3785e-04  6.1060e-08  1.6678e-08  5.4263e-07  9.4482e-08  0:00:20  139
  1862  1.3673e-04  5.9535e-08  1.6775e-08  5.4336e-07  9.7560e-08  0:00:16  138
  1863  1.3571e-04  5.9688e-08  1.6588e-08  5.4119e-07  9.8830e-08  0:00:40  137
  1864  1.3827e-04  6.0051e-08  1.6606e-08  5.3407e-07  9.9046e-08  0:00:32  136
  1865  1.3674e-04  6.1391e-08  1.6492e-08  5.3888e-07  9.8551e-08  0:00:25  135
  1866  1.3666e-04  5.9175e-08  1.6613e-08  5.4765e-07  1.0033e-07  0:00:20  134
  1867  1.3643e-04  5.9519e-08  1.6674e-08  5.4045e-07  9.6443e-08  0:00:16  133
  1868  1.3780e-04  6.0438e-08  1.6564e-08  5.4410e-07  9.8356e-08  0:00:13  132
  1869  1.3660e-04  5.9062e-08  1.6758e-08  5.3812e-07  9.4519e-08  0:00:36  131
  1870  1.3664e-04  5.9727e-08  1.6936e-08  5.3002e-07  9.8853e-08  0:00:29  130

  iter  continuity  x-velocity  y-velocity           k       omega     time/iter
  1871  1.3866e-04  6.0189e-08  1.6758e-08  5.2164e-07  9.5074e-08  0:00:23  129
  1872  1.3721e-04  6.0502e-08  1.6825e-08  5.2197e-07  9.6163e-08  0:00:18  128
  1873  1.3763e-04  6.0010e-08  1.6645e-08  5.1321e-07  9.6405e-08  0:00:14  127
  1874  1.3750e-04  6.0156e-08  1.6545e-08  5.0782e-07  9.7983e-08  0:00:11  126
  1875  1.3417e-04  5.9870e-08  1.6664e-08  5.0514e-07  9.6683e-08  0:00:34  125
  1876  1.3693e-04  6.0023e-08  1.6729e-08  5.0360e-07  9.7906e-08  0:00:27  124
  1877  1.3851e-04  5.9488e-08  1.6762e-08  5.0377e-07  9.6962e-08  0:00:21  123
  1878  1.3932e-04  5.9724e-08  1.6472e-08  5.0793e-07  9.7142e-08  0:00:17  122
  1879  1.3725e-04  6.0127e-08  1.6892e-08  5.0732e-07  9.4697e-08  0:00:38  121
  1880  1.3765e-04  5.9470e-08  1.6847e-08  5.1065e-07  9.6879e-08  0:00:30  120
  1881  1.3596e-04  5.8992e-08  1.6936e-08  5.1001e-07  9.5500e-08  0:00:24  119

  iter  continuity  x-velocity  y-velocity           k       omega     time/iter
  1882  1.3877e-04  5.9900e-08  1.6674e-08  5.2086e-07  9.5701e-08  0:00:19  118
  1883  1.3641e-04  5.9834e-08  1.6760e-08  5.2274e-07  9.7638e-08  0:00:15  117
  1884  1.3664e-04  5.9731e-08  1.6834e-08  5.2658e-07  9.4622e-08  0:00:12  116
  1885  1.3781e-04  5.9306e-08  1.6735e-08  5.2207e-07  9.4178e-08  0:00:32  115
  1886  1.3468e-04  5.9467e-08  1.6627e-08  5.1398e-07  9.3731e-08  0:00:26  114
  1887  1.3891e-04  5.9191e-08  1.6454e-08  5.1798e-07  9.3507e-08  0:00:20  113
  1888  1.3800e-04  6.0057e-08  1.6997e-08  5.1671e-07  9.5721e-08  0:00:16  112
  1889  1.3784e-04  5.9227e-08  1.6860e-08  5.2070e-07  9.5904e-08  0:00:13  111
  1890  1.3698e-04  5.9324e-08  1.6785e-08  5.1995e-07  9.4880e-08  0:00:32  110
  1891  1.3702e-04  5.8771e-08  1.6725e-08  5.1790e-07  9.3958e-08  0:00:25  109
  1892  1.3708e-04  5.9267e-08  1.6558e-08  5.1691e-07  9.5654e-08  0:00:20  108

  iter  continuity  x-velocity  y-velocity           k       omega     time/iter
  1893  1.3420e-04  5.8085e-08  1.6691e-08  5.1318e-07  9.6579e-08  0:00:16  107
  1894  1.3711e-04  5.8689e-08  1.6432e-08  5.1917e-07  9.2601e-08  0:00:13  106
  1895  1.3846e-04  5.8552e-08  1.6697e-08  5.1560e-07  9.3482e-08  0:00:10  105
  1896  1.3815e-04  5.9043e-08  1.6686e-08  5.1633e-07  9.1141e-08  0:00:29  104
  1897  1.3718e-04  5.8362e-08  1.6597e-08  5.1548e-07  9.4903e-08  0:00:23  103
  1898  1.3610e-04  5.9013e-08  1.6454e-08  5.1040e-07  9.5665e-08  0:00:18  102
  1899  1.3684e-04  5.8214e-08  1.6406e-08  5.0196e-07  9.0491e-08  0:00:14  101
  1900  1.3928e-04  5.8773e-08  1.6858e-08  5.0150e-07  9.6315e-08  0:00:11  100
  1901  1.3913e-04  5.8722e-08  1.6820e-08  4.9046e-07  9.3852e-08  0:00:09   99
  1902  1.3905e-04  5.8210e-08  1.6641e-08  4.9208e-07  9.6178e-08  0:00:27   98
  1903  1.3815e-04  5.8425e-08  1.6569e-08  4.8503e-07  9.1073e-08  0:00:21   97

  iter  continuity  x-velocity  y-velocity           k       omega     time/iter
  1904  1.3735e-04  5.8907e-08  1.6508e-08  4.8288e-07  9.0806e-08  0:00:17   96
  1905  1.3361e-04  5.8981e-08  1.6562e-08  4.8088e-07  9.3369e-08  0:00:13   95
  1906  1.3694e-04  5.8947e-08  1.6468e-08  4.8026e-07  9.1232e-08  0:00:10   94
  1907  1.3641e-04  5.9033e-08  1.6606e-08  4.8434e-07  9.0981e-08  0:00:08   93
  1908  1.3676e-04  5.9262e-08  1.6366e-08  4.8779e-07  9.1617e-08  0:00:25   92
  1909  1.3668e-04  5.8186e-08  1.6526e-08  4.8833e-07  9.1899e-08  0:00:20   91
  1910  1.3820e-04  5.8147e-08  1.6626e-08  4.9253e-07  9.3121e-08  0:00:16   90
  1911  1.3814e-04  5.8696e-08  1.6660e-08  4.9977e-07  9.2064e-08  0:00:12   89
  1912  1.3757e-04  5.8374e-08  1.6411e-08  5.0053e-07  9.5444e-08  0:00:10   88
  1913  1.3775e-04  5.8449e-08  1.6779e-08  5.0302e-07  8.9344e-08  0:00:08   87
  1914  1.3567e-04  5.8966e-08  1.6620e-08  4.9860e-07  9.3652e-08  0:00:23   86

  iter  continuity  x-velocity  y-velocity           k       omega     time/iter
  1915  1.3846e-04  5.8907e-08  1.6637e-08  4.9213e-07  9.2198e-08  0:00:18   85
  1916  1.4038e-04  5.9008e-08  1.6664e-08  4.9079e-07  9.2407e-08  0:00:15   84
  1917  1.3621e-04  5.8696e-08  1.7157e-08  4.9333e-07  8.9214e-08  0:00:12   83
  1918  1.3792e-04  5.8771e-08  1.6513e-08  4.9778e-07  9.2420e-08  0:00:09   82
  1919  1.3788e-04  5.8438e-08  1.6417e-08  4.9632e-07  9.0805e-08  0:00:23   81
  1920  1.3828e-04  5.7771e-08  1.6561e-08  4.9450e-07  9.2165e-08  0:00:18   80
  1921  1.3749e-04  5.7910e-08  1.6719e-08  4.9021e-07  9.0469e-08  0:00:15   79
  1922  1.3797e-04  5.8883e-08  1.6823e-08  4.9848e-07  9.2726e-08  0:00:12   78
  1923  1.3721e-04  5.8498e-08  1.6676e-08  4.9978e-07  8.9620e-08  0:00:25   77
  1924  1.3591e-04  5.8440e-08  1.6826e-08  4.9340e-07  9.6777e-08  0:00:19   76
  1925  1.3613e-04  5.7220e-08  1.6492e-08  4.9435e-07  9.2699e-08  0:00:15   75

  iter  continuity  x-velocity  y-velocity           k       omega     time/iter
  1926  1.3743e-04  5.7542e-08  1.6573e-08  4.9143e-07  8.7751e-08  0:00:12   74
  1927  1.3790e-04  5.7979e-08  1.6637e-08  4.8583e-07  9.0052e-08  0:00:10   73
  1928  1.3679e-04  5.8122e-08  1.6609e-08  4.8116e-07  8.8516e-08  0:00:08   72
  1929  1.3756e-04  5.8446e-08  1.6504e-08  4.7571e-07  8.7279e-08  0:00:20   71
  1930  1.3794e-04  5.9412e-08  1.6155e-08  4.6715e-07  8.8031e-08  0:00:16   70
  1931  1.3809e-04  5.8165e-08  1.6350e-08  4.6290e-07  9.0092e-08  0:00:13   69
  1932  1.3925e-04  5.7780e-08  1.6560e-08  4.6059e-07  8.8156e-08  0:00:10   68
  1933  1.3972e-04  5.7717e-08  1.6388e-08  4.5872e-07  9.1031e-08  0:00:08   67
  1934  1.3794e-04  5.8500e-08  1.6646e-08  4.5813e-07  9.0521e-08  0:00:19   66
  1935  1.3607e-04  5.7687e-08  1.6407e-08  4.5808e-07  9.0400e-08  0:00:15   65
  1936  1.3840e-04  5.6853e-08  1.6584e-08  4.6217e-07  8.9569e-08  0:00:12   64

  iter  continuity  x-velocity  y-velocity           k       omega     time/iter
  1937  1.3794e-04  5.6875e-08  1.6417e-08  4.6558e-07  9.0112e-08  0:00:09   63
  1938  1.3673e-04  5.7210e-08  1.6513e-08  4.6970e-07  8.8328e-08  0:00:07   62
  1939  1.3621e-04  5.7313e-08  1.6448e-08  4.6990e-07  8.8419e-08  0:00:06   61
  1940  1.3591e-04  5.7163e-08  1.6418e-08  4.8173e-07  8.8991e-08  0:00:17   60
  1941  1.3550e-04  5.7582e-08  1.6400e-08  4.7827e-07  8.8163e-08  0:00:13   59
  1942  1.3470e-04  5.7145e-08  1.6491e-08  4.8190e-07  9.0964e-08  0:00:10   58
  1943  1.3693e-04  5.7079e-08  1.6408e-08  4.7650e-07  8.9356e-08  0:00:08   57
  1944  1.3978e-04  5.7572e-08  1.6664e-08  4.7318e-07  8.8391e-08  0:00:06   56
  1945  1.3703e-04  5.7645e-08  1.6784e-08  4.7476e-07  9.0653e-08  0:00:05   55
  1946  1.3459e-04  5.6287e-08  1.6404e-08  4.7640e-07  9.0282e-08  0:00:15   54
  1947  1.3424e-04  5.6678e-08  1.6519e-08  4.7482e-07  8.8066e-08  0:00:12   53

  iter  continuity  x-velocity  y-velocity           k       omega     time/iter
  1948  1.3646e-04  5.6655e-08  1.6319e-08  4.7219e-07  8.8528e-08  0:00:09   52
  1949  1.3757e-04  5.7548e-08  1.6251e-08  4.7539e-07  9.1043e-08  0:00:07   51
  1950  1.3594e-04  5.7518e-08  1.6621e-08  4.6874e-07  8.7849e-08  0:00:06   50
  1951  1.3436e-04  5.7141e-08  1.6223e-08  4.7811e-07  9.0953e-08  0:00:04   49
  1952  1.3601e-04  5.6275e-08  1.6443e-08  4.8287e-07  8.9903e-08  0:00:13   48
  1953  1.3630e-04  5.6089e-08  1.6246e-08  4.7602e-07  9.3281e-08  0:00:10   47
  1954  1.3709e-04  5.6442e-08  1.6492e-08  4.7311e-07  8.8261e-08  0:00:08   46
  1955  1.4028e-04  5.7422e-08  1.6614e-08  4.6918e-07  8.7229e-08  0:00:06   45
  1956  1.3918e-04  5.7605e-08  1.6632e-08  4.6281e-07  8.7387e-08  0:00:05   44
  1957  1.3705e-04  5.7078e-08  1.6418e-08  4.5967e-07  8.6973e-08  0:00:12   43
  1958  1.3863e-04  5.6703e-08  1.6248e-08  4.5673e-07  8.9616e-08  0:00:10   42

  iter  continuity  x-velocity  y-velocity           k       omega     time/iter
  1959  1.3702e-04  5.6555e-08  1.6343e-08  4.4770e-07  8.4793e-08  0:00:08   41
  1960  1.3659e-04  5.6315e-08  1.6566e-08  4.4392e-07  8.9304e-08  0:00:06   40
  1961  1.4049e-04  5.7341e-08  1.6527e-08  4.4230e-07  8.6891e-08  0:00:05   39
  1962  1.3667e-04  5.6709e-08  1.6480e-08  4.4278e-07  8.8908e-08  0:00:04   38
  1963  1.3762e-04  5.5884e-08  1.6518e-08  4.3894e-07  8.4524e-08  0:00:10   37
  1964  1.3749e-04  5.5784e-08  1.6515e-08  4.4370e-07  8.6034e-08  0:00:08   36
  1965  1.4019e-04  5.6835e-08  1.6331e-08  4.4510e-07  8.7034e-08  0:00:06   35
  1966  1.3516e-04  5.6507e-08  1.6395e-08  4.4712e-07  8.9814e-08  0:00:05   34
  1967  1.3448e-04  5.5645e-08  1.6135e-08  4.5212e-07  8.4334e-08  0:00:10   33
  1968  1.3722e-04  5.5950e-08  1.6231e-08  4.5206e-07  8.8224e-08  0:00:08   32
  1969  1.3857e-04  5.6267e-08  1.6470e-08  4.5389e-07  8.7555e-08  0:00:06   31

  iter  continuity  x-velocity  y-velocity           k       omega     time/iter
  1970  1.3711e-04  5.6363e-08  1.6378e-08  4.6512e-07  8.9873e-08  0:00:05   30
  1971  1.3980e-04  5.6562e-08  1.6576e-08  4.6505e-07  8.7406e-08  0:00:04   29
  1972  1.3488e-04  5.5805e-08  1.6392e-08  4.5736e-07  8.7010e-08  0:00:03   28
  1973  1.3842e-04  5.6281e-08  1.6490e-08  4.5579e-07  8.3995e-08  0:00:08   27
  1974  1.3681e-04  5.6189e-08  1.6343e-08  4.5532e-07  8.8541e-08  0:00:06   26
  1975  1.3482e-04  5.7354e-08  1.6469e-08  4.5528e-07  8.4351e-08  0:00:05   25
  1976  1.3846e-04  5.6836e-08  1.6679e-08  4.5558e-07  8.7623e-08  0:00:03   24
  1977  1.3719e-04  5.6952e-08  1.6368e-08  4.5684e-07  8.8989e-08  0:00:03   23
  1978  1.3680e-04  5.6145e-08  1.6250e-08  4.5930e-07  8.5014e-08  0:00:02   22
  1979  1.3807e-04  5.5927e-08  1.6218e-08  4.5266e-07  8.3999e-08  0:00:06   21
  1980  1.3829e-04  5.5398e-08  1.6473e-08  4.5909e-07  8.7744e-08  0:00:04   20

  iter  continuity  x-velocity  y-velocity           k       omega     time/iter
  1981  1.3658e-04  5.6620e-08  1.6304e-08  4.5386e-07  8.4279e-08  0:00:03   19
  1982  1.3775e-04  5.5861e-08  1.6339e-08  4.5297e-07  9.0290e-08  0:00:03   18
  1983  1.3568e-04  5.6308e-08  1.6319e-08  4.4827e-07  8.2283e-08  0:00:02   17
  1984  1.3780e-04  5.6500e-08  1.6340e-08  4.5074e-07  8.6486e-08  0:00:05   16
  1985  1.3643e-04  5.5801e-08  1.6215e-08  4.4083e-07  8.1769e-08  0:00:03   15
  1986  1.3537e-04  5.5146e-08  1.5956e-08  4.3965e-07  8.7131e-08  0:00:03   14
  1987  1.3597e-04  5.6456e-08  1.6307e-08  4.3363e-07  8.4347e-08  0:00:02   13
  1988  1.3501e-04  5.5288e-08  1.6271e-08  4.3405e-07  8.6264e-08  0:00:01   12
  1989  1.3742e-04  5.5242e-08  1.6218e-08  4.2797e-07  8.0563e-08  0:00:01   11
  1990  1.3954e-04  5.5461e-08  1.6330e-08  4.2447e-07  8.0511e-08  0:00:03   10
  1991  1.3720e-04  5.4755e-08  1.6267e-08  4.1776e-07  8.5006e-08  0:00:02    9

  iter  continuity  x-velocity  y-velocity           k       omega     time/iter
  1992  1.3522e-04  5.5602e-08  1.6377e-08  4.1820e-07  8.2299e-08  0:00:01    8
  1993  1.3646e-04  5.6335e-08  1.6153e-08  4.2036e-07  8.6442e-08  0:00:01    7
  1994  1.3627e-04  5.5399e-08  1.6130e-08  4.2460e-07  8.2581e-08  0:00:01    6
  1995  1.3591e-04  5.5964e-08  1.6124e-08  4.2342e-07  8.6199e-08  0:00:01    5
  1996  1.3715e-04  5.4497e-08  1.6087e-08  4.2707e-07  8.1343e-08  0:00:01    4
  1997  1.3792e-04  5.4507e-08  1.6182e-08  4.3113e-07  8.5329e-08  0:00:01    3
  1998  1.3671e-04  5.5239e-08  1.6249e-08  4.3706e-07  8.3974e-08  0:00:00    2
  1999  1.3785e-04  5.5757e-08  1.6501e-08  4.4139e-07  8.7520e-08  0:00:00    1
  2000  1.3846e-04  5.6495e-08  1.6333e-08  4.4630e-07  8.6924e-08  0:00:00    0

> 
adjoint/                parallel/               server/
define/                 parametric-study/       solve/
display/                plot/                   surface/
exit                    preferences/            views/
file/                   print-license-usage
mesh/                   report/

> ;create rakes
surface/rake-surface cv_inlet -0.005 -0.065 -0.005 0.065 1000

> surface/rake-surface cv_outlet 1.005 -0.065 1.005 0.065 1000

> surface/rake-surface cv_top -0.005 0.065 1.005 0.065 1000

> surface/rake-surface cv_bottom -0.005 -0.065 1.005 -0.065 1000

> surface/point-surface free-stream -15 0

> 
adjoint/                parallel/               server/
define/                 parametric-study/       solve/
display/                plot/                   surface/
exit                    preferences/            views/
file/                   print-license-usage
mesh/                   report/

> ;export data
file/export/ascii NP_CVinlet_data cv_inlet () no pressure x-velocity y-velocity dx-velocity-dx dx-velocity-dy dy-velocity-dx dy-velocity-dy q no 
Writing "NP_CVinlet_data"...

Writing information to ascii file ...
Done.

ok


Overwrite confirmations (/file/set-batch-options ...)
are on -- will therefore ignore the following journal
Error: invalid command: ok


> file/export/ascii NP_CVoutlet_data cv_outlet () no pressure x-velocity y-velocity dx-velocity-dx dx-velocity-dy dy-velocity-dx dy-velocity-dy q no 
Writing "NP_CVoutlet_data"...

Writing information to ascii file ...
Done.

ok


Overwrite confirmations (/file/set-batch-options ...)
are on -- will therefore ignore the following journal
Error: invalid command: ok


> file/export/ascii NP_CVtop_data cv_top () no pressure x-velocity y-velocity dx-velocity-dx dx-velocity-dy dy-velocity-dx dy-velocity-dy q no 
Writing "NP_CVtop_data"...

Writing information to ascii file ...
Done.

ok


Overwrite confirmations (/file/set-batch-options ...)
are on -- will therefore ignore the following journal
Error: invalid command: ok


> file/export/ascii NP_CVbottom_data cv_bottom () no pressure x-velocity y-velocity dx-velocity-dx dx-velocity-dy dy-velocity-dx dy-velocity-dy q no 
Writing "NP_CVbottom_data"...

Writing information to ascii file ...
Done.

ok


Overwrite confirmations (/file/set-batch-options ...)
are on -- will therefore ignore the following journal
Error: invalid command: ok


> file/export/ascii air_properties free-stream () no density viscosity-lam q no 
Writing "air_properties"...

Writing information to ascii file ...
Done.

ok


Overwrite confirmations (/file/set-batch-options ...)
are on -- will therefore ignore the following journal
Error: invalid command: ok


> 
adjoint/                parallel/               server/
define/                 parametric-study/       solve/
display/                plot/                   surface/
exit                    preferences/            views/
file/                   print-license-usage
mesh/                   report/

> ;flag file to know when simulation is over
file/export/ascii flag_file free-stream () no pressure q no 
Writing "flag_file"...

Writing information to ascii file ...
Done.

ok


Overwrite confirmations (/file/set-batch-options ...)
are on -- will therefore ignore the following journal
Error: invalid command: ok


> /exit ok

Posting ANSYS Product Improvement Program performance data 
Done.
Auto-Transcript Stop Time:  21:40:20, 20 Jul 2025 GMT Summer Time 
Total Transcript Time: 20 Minute 53 Second.
