Auto-Transcript Start Time:  19:30:04, 01 Jul 2025 GMT Summer Time 
Current Directory: "C:\Users\V.Chepuri\OneDrive - Cranfield University\irp\pablo\AOA_2"

              Welcome to ANSYS Fluent 2024 R2

              Copyright 1987-2024 ANSYS, Inc. All Rights Reserved.
              Unauthorized use, distribution or duplication is prohibited.
              This product is subject to U.S. laws governing export and re-export.
              For full Legal Notice, see documentation.

Build Time: May 13 2024 11:28:30 EST  Build Id: 10192  
 
Connected License Server List:	1055@cclic-2.central.cranfield.ac.uk

*********************************************
Info: Your license enables 4-way parallel execution.
For faster simulations, please start the application with the appropriate parallel options.
*********************************************


     --------------------------------------------------------------
     This is an academic version of ANSYS FLUENT. Usage of this product
     license is limited to the terms and conditions specified in your ANSYS
     license form, additional terms section.
     --------------------------------------------------------------
Host spawning Node 0 on machine "37PCL051" (win64).

-------------------------------------------------------------------------------
ID    Hostname  Core  O.S.         PID    Vendor                          
-------------------------------------------------------------------------------
n0    37PCL051  1/28  Windows-x64  30628  Intel(R) Core(TM) i7-14700      
host  37PCL051        Windows-x64  28812  Intel(R) Core(TM) i7-14700      

MPI Option Selected: intel
-------------------------------------------------------------------------------

Cleanup script file is C:\\Users\\V.Chepuri\\OneDrive - Cranfield University\\irp\\pablo\\AOA_2\\cleanup-fluent-37PCL051-28812.bat

Posting ANSYS Product Improvement Program startup data
Done.

> (cx-gui-do cx-activate-item "Key Behavioral Changes*PanelButtons*PushButton1(OK)")
(cx-gui-do cx-activate-item "MenuBar*ReadSubMenu*Journal...")

Reading journal file C:/Users/V.Chepuri/OneDrive - Cranfield University/irp/pablo/AOA_2/template.jou...

> ;change to correct dir

file/read-case template_medium.cas.h5 Fast-loading "C:\PROGRA~1\ANSYSI~1\v242\fluent\fluent24.2.0\\addons\afd\lib\hdfio.bin"
Done.

37PCL051 has other FLUENT parallel processes running.                       Process affinity not being set.

Reading from 37PCL051:"C:\Users\V.Chepuri\OneDrive - Cranfield University\irp\pablo\AOA_2\template_medium.cas.h5" in NODE0 mode ...
  Reading mesh ...
      181070 cells,     4 cell zones ...
          36824 mixed cells,  zone id: 2
         108032 mixed cells,  zone id: 4
          27008 mixed cells,  zone id: 12
           9206 mixed cells,  zone id: 11
      309160 faces,    14 face zones ...
          65137 2D interior faces,  zone id: 3
         181145 2D interior faces,  zone id: 5
             42 2D velocity-inlet faces,  zone id: 6
             38 2D pressure-outlet faces,  zone id: 7
             40 2D velocity-inlet faces,  zone id: 8
            458 2D interior faces,  zone id: 9
            456 2D interior faces,  zone id: 10
            228 2D parent-face faces,  zone id: 19
            229 2D parent-face faces,  zone id: 18
             20 2D parent-face faces,  zone id: 17
             19 2D parent-face faces,  zone id: 16
             21 2D parent-face faces,  zone id: 15
          45157 2D parent-face faces,  zone id: 14
          16170 2D parent-face faces,  zone id: 13
      102461 nodes,     1 node zone  ...
  Done.


Building...
     mesh
     materials,
     interface,
     domains,
	mixture
     zones,
	outlet
	inlet
	interior-fluid
	interior-porous
	symmetry
	upper
	lower
	fluid
	porous
WARNING: "Smooth" contours can't be displayed when node-values is set to off. Changing the Coloring type to "Banded".
     parallel,
Done.
OK


Overwrite confirmations (/file/set-batch-options ...)
are on -- will therefore ignore the following journal
Error: invalid command: OK


> 
adjoint/                parallel/               server/
define/                 parametric-study/       solve/
display/                plot/                   surface/
exit                    preferences/            views/
file/                   print-license-usage
mesh/                   report/

> 
adjoint/                parallel/               server/
define/                 parametric-study/       solve/
display/                plot/                   surface/
exit                    preferences/            views/
file/                   print-license-usage
mesh/                   report/

> 
adjoint/                parallel/               server/
define/                 parametric-study/       solve/
display/                plot/                   surface/
exit                    preferences/            views/
file/                   print-license-usage
mesh/                   report/

> ;run simulation
solve/initialize/initialize-flow

> solve/iterate 2000

  iter  continuity  x-velocity  y-velocity     time/iter
     1  1.0000e+00  5.4423e-05  1.5033e-02  0:33:19 1999
     2  9.9992e-01  1.6265e-04  1.0958e-02  0:26:38 1998
     3  5.5277e-01  1.5561e-04  7.7840e-03  0:27:57 1997
     4  3.6207e-01  1.3486e-04  5.0899e-03  0:22:21 1996
     5  2.6255e-01  1.1353e-04  3.0741e-03  0:17:53 1995
     6  2.0318e-01  9.6076e-05  1.7331e-03  0:20:56 1994
     7  1.6584e-01  8.4041e-05  9.3679e-04  0:16:45 1993
     8  1.3991e-01  7.4150e-05  4.9368e-04  0:13:23 1992
     9  1.2037e-01  6.6143e-05  2.5648e-04  0:17:20 1991
    10  1.0335e-01  5.8843e-05  1.3244e-04  0:13:52 1990
    11  8.8964e-02  5.1860e-05  6.8554e-05  0:11:05 1989

  iter  continuity  x-velocity  y-velocity     time/iter
    12  7.5997e-02  4.4735e-05  3.6155e-05  0:15:30 1988
    13  6.5528e-02  3.8840e-05  1.9781e-05  0:12:23 1987
    14  5.7120e-02  3.3511e-05  1.1502e-05  0:09:54 1986
    15  5.0152e-02  2.8745e-05  7.3167e-06  0:14:32 1985
    16  4.3868e-02  2.4701e-05  5.1453e-06  0:11:37 1984
    17  3.8114e-02  2.0614e-05  3.9322e-06  0:09:18 1983
    18  3.3516e-02  1.7519e-05  3.2392e-06  0:07:26 1982
    19  2.9767e-02  1.4961e-05  2.7737e-06  0:12:33 1981
    20  2.6438e-02  1.2887e-05  2.4451e-06  0:10:02 1980
    21  2.3347e-02  1.1252e-05  2.1953e-06  0:08:01 1979
    22  2.0986e-02  1.0108e-05  2.0004e-06  0:13:00 1978

  iter  continuity  x-velocity  y-velocity     time/iter
    23  1.8555e-02  8.7473e-06  1.8134e-06  0:10:24 1977
    24  1.6396e-02  7.6649e-06  1.6508e-06  0:08:19 1976
    25  1.4547e-02  6.7616e-06  1.5091e-06  0:13:14 1975
    26  1.3046e-02  5.9693e-06  1.3879e-06  0:10:35 1974
    27  1.1718e-02  5.2832e-06  1.2780e-06  0:08:28 1973
    28  1.0594e-02  4.6616e-06  1.1895e-06  0:06:46 1972
    29  9.5963e-03  4.1101e-06  1.1143e-06  0:11:59 1971
    30  8.7251e-03  3.6137e-06  1.0435e-06  0:09:35 1970
    31  7.9993e-03  3.1960e-06  9.8232e-07  0:07:40 1969
    32  7.2725e-03  2.8263e-06  9.2592e-07  0:06:07 1968
    33  6.6762e-03  2.5014e-06  8.7908e-07  0:11:27 1967

  iter  continuity  x-velocity  y-velocity     time/iter
    34  6.1379e-03  2.2065e-06  8.3976e-07  0:09:09 1966
    35  5.6579e-03  1.9309e-06  8.0135e-07  0:07:19 1965
    36  5.2555e-03  1.6977e-06  7.6355e-07  0:05:51 1964
    37  4.8702e-03  1.5010e-06  7.2786e-07  0:11:14 1963
    38  4.4952e-03  1.3277e-06  6.9484e-07  0:08:59 1962
    39  4.1438e-03  1.1765e-06  6.6195e-07  0:07:11 1961
    40  3.8475e-03  1.0496e-06  6.3061e-07  0:12:16 1960
    41  3.5853e-03  9.3912e-07  6.0369e-07  0:09:49 1959
    42  3.3323e-03  8.4294e-07  5.8109e-07  0:07:51 1958
    43  3.1048e-03  7.6049e-07  5.6083e-07  0:06:16 1957
    44  2.8928e-03  6.9487e-07  5.4210e-07  0:11:32 1956

  iter  continuity  x-velocity  y-velocity     time/iter
    45  2.7116e-03  6.3759e-07  5.2506e-07  0:09:13 1955
    46  2.5549e-03  5.8832e-07  5.0921e-07  0:07:23 1954
    47  2.4119e-03  5.4385e-07  4.9422e-07  0:05:54 1953
    48  2.2787e-03  5.0359e-07  4.8100e-07  0:11:13 1952
    49  2.1575e-03  4.6626e-07  4.6851e-07  0:08:58 1951
    50  2.0560e-03  4.3180e-07  4.5620e-07  0:07:10 1950
    51  1.9673e-03  4.0076e-07  4.4445e-07  0:05:44 1949
    52  1.8799e-03  3.7105e-07  4.3309e-07  0:11:05 1948
    53  1.7997e-03  3.4414e-07  4.2261e-07  0:08:52 1947
    54  1.7231e-03  3.1958e-07  4.1336e-07  0:07:05 1946
    55  1.6529e-03  2.9702e-07  4.0445e-07  0:05:40 1945

  iter  continuity  x-velocity  y-velocity     time/iter
    56  1.5881e-03  2.7798e-07  3.9654e-07  0:11:01 1944
    57  1.5297e-03  2.6174e-07  3.8885e-07  0:08:48 1943
    58  1.4730e-03  2.4661e-07  3.8137e-07  0:07:02 1942
    59  1.4216e-03  2.3375e-07  3.7426e-07  0:05:38 1941
    60  1.3773e-03  2.2268e-07  3.6748e-07  0:10:58 1940
    61  1.3398e-03  2.1540e-07  3.5901e-07  0:08:46 1939
    62  1.3006e-03  2.0389e-07  3.5424e-07  0:07:01 1938
    63  1.2648e-03  1.9444e-07  3.4898e-07  0:12:04 1937
    64  1.2323e-03  1.8703e-07  3.4337e-07  0:09:39 1936
    65  1.2000e-03  1.7967e-07  3.3762e-07  0:07:43 1935
    66  1.1712e-03  1.7467e-07  3.2987e-07  0:06:10 1934

  iter  continuity  x-velocity  y-velocity     time/iter
    67  1.1391e-03  1.6652e-07  3.2573e-07  0:11:22 1933
    68  1.1132e-03  1.6208e-07  3.1933e-07  0:09:06 1932
    69  1.0890e-03  1.5740e-07  3.1428e-07  0:07:16 1931
    70  1.0663e-03  1.5296e-07  3.0982e-07  0:12:15 1930
    71  1.0425e-03  1.4737e-07  3.0707e-07  0:09:48 1929
    72  1.0238e-03  1.4499e-07  3.0160e-07  0:07:50 1928
    73  1.0059e-03  1.4257e-07  2.9699e-07  0:12:41 1927
    74  9.8615e-04  1.3831e-07  2.9420e-07  0:10:09 1926
    75  9.7077e-04  1.3681e-07  2.8908e-07  0:08:07 1925
    76  9.5350e-04  1.3328e-07  2.8627e-07  0:12:54 1924
    77  9.3976e-04  1.3237e-07  2.8133e-07  0:10:19 1923

  iter  continuity  x-velocity  y-velocity     time/iter
    78  9.2567e-04  1.3073e-07  2.7738e-07  0:08:15 1922
    79  9.0928e-04  1.2728e-07  2.7512e-07  0:06:36 1921
    80  8.9667e-04  1.2632e-07  2.7072e-07  0:11:40 1920
    81  8.8238e-04  1.2334e-07  2.6838e-07  0:09:20 1919
    82  8.7094e-04  1.2275e-07  2.6408e-07  0:07:28 1918
    83  8.5754e-04  1.1979e-07  2.6185e-07  0:12:21 1917
    84  8.4783e-04  1.1921e-07  2.5773e-07  0:09:53 1916
    85  8.3794e-04  1.1783e-07  2.5447e-07  0:07:54 1915
    86  8.2592e-04  1.1478e-07  2.5273e-07  0:06:19 1914
    87  8.1671e-04  1.1410e-07  2.4907e-07  0:11:26 1913
    88  8.0753e-04  1.1300e-07  2.4610e-07  0:09:08 1912

  iter  continuity  x-velocity  y-velocity     time/iter
    89  7.9642e-04  1.1034e-07  2.4446e-07  0:07:18 1911
    90  7.8791e-04  1.0987e-07  2.4096e-07  0:12:12 1910
    91  7.7908e-04  1.0898e-07  2.3813e-07  0:09:46 1909
    92  7.6845e-04  1.0648e-07  2.3660e-07  0:07:48 1908
    93  7.6013e-04  1.0605e-07  2.3329e-07  0:12:36 1907
    94  7.5211e-04  1.0515e-07  2.3059e-07  0:10:04 1906
    95  7.4247e-04  1.0271e-07  2.2914e-07  0:08:03 1905
    96  7.3517e-04  1.0240e-07  2.2599e-07  0:06:26 1904
    97  7.2784e-04  1.0172e-07  2.2343e-07  0:11:30 1903
    98  7.1893e-04  9.9548e-08  2.2211e-07  0:09:11 1902
    99  7.1230e-04  9.9334e-08  2.1914e-07  0:07:21 1901

  iter  continuity  x-velocity  y-velocity     time/iter
   100  7.0434e-04  9.7460e-08  2.1776e-07  0:12:12 1900
   101  6.9863e-04  9.7532e-08  2.1488e-07  0:09:46 1899
   102  6.9259e-04  9.6904e-08  2.1261e-07  0:07:48 1898
   103  6.8484e-04  9.4810e-08  2.1148e-07  0:06:14 1897
   104  6.7912e-04  9.4694e-08  2.0882e-07  0:11:19 1896
   105  6.7199e-04  9.2956e-08  2.0761e-07  0:09:03 1895
   106  6.6680e-04  9.3050e-08  2.0499e-07  0:07:14 1894
   107  6.6136e-04  9.2507e-08  2.0294e-07  0:12:05 1893
   108  6.5389e-04  9.0561e-08  2.0193e-07  0:09:40 1892
   109  6.4837e-04  9.0445e-08  1.9948e-07  0:07:44 1891
   110  6.4156e-04  8.8783e-08  1.9839e-07  0:06:11 1890

  iter  continuity  x-velocity  y-velocity     time/iter
   111  6.3669e-04  8.8874e-08  1.9598e-07  0:11:14 1889
   112  6.3021e-04  8.7167e-08  1.9495e-07  0:08:59 1888
   113  6.2592e-04  8.7341e-08  1.9264e-07  0:07:11 1887
   114  6.1978e-04  8.5640e-08  1.9166e-07  0:12:02 1886
   115  6.1579e-04  8.5837e-08  1.8943e-07  0:09:37 1885
   116  6.1155e-04  8.5375e-08  1.8774e-07  0:07:42 1884
   117  6.0547e-04  8.3567e-08  1.8702e-07  0:12:26 1883
   118  6.0141e-04  8.3511e-08  1.8500e-07  0:09:56 1882
   119  5.9586e-04  8.2020e-08  1.8416e-07  0:07:57 1881
   120  5.9221e-04  8.2160e-08  1.8211e-07  0:06:21 1880
   121  5.8658e-04  8.0604e-08  1.8127e-07  0:11:21 1879

  iter  continuity  x-velocity  y-velocity     time/iter
   122  5.8312e-04  8.0830e-08  1.7929e-07  0:09:04 1878
   123  5.7768e-04  7.9301e-08  1.7852e-07  0:13:30 1877
   124  5.7429e-04  7.9567e-08  1.7659e-07  0:10:48 1876
   125  5.6900e-04  7.8081e-08  1.7583e-07  0:08:38 1875
   126  5.6580e-04  7.8353e-08  1.7393e-07  0:06:54 1874
   127  5.6077e-04  7.6917e-08  1.7318e-07  0:11:46 1873
   128  5.5773e-04  7.7173e-08  1.7130e-07  0:09:24 1872
   129  5.5286e-04  7.5769e-08  1.7054e-07  0:07:31 1871
   130  5.4995e-04  7.6021e-08  1.6869e-07  0:06:01 1870
   131  5.4522e-04  7.4644e-08  1.6795e-07  0:11:02 1869
   132  5.4246e-04  7.4894e-08  1.6615e-07  0:08:50 1868

  iter  continuity  x-velocity  y-velocity     time/iter
   133  5.3781e-04  7.3553e-08  1.6544e-07  0:07:03 1867
   134  5.3518e-04  7.3822e-08  1.6369e-07  0:11:52 1866
   135  5.3081e-04  7.2537e-08  1.6303e-07  0:09:29 1865
   136  5.2852e-04  7.2812e-08  1.6135e-07  0:07:35 1864
   137  5.2435e-04  7.1527e-08  1.6073e-07  0:12:16 1863
   138  5.2225e-04  7.1818e-08  1.5914e-07  0:09:49 1862
   139  5.1829e-04  7.0593e-08  1.5858e-07  0:07:51 1861
   140  5.1643e-04  7.0904e-08  1.5706e-07  0:06:16 1860
   141  5.1267e-04  6.9706e-08  1.5654e-07  0:11:13 1859
   142  5.1098e-04  7.0018e-08  1.5506e-07  0:08:58 1858
   143  5.0742e-04  6.8851e-08  1.5457e-07  0:07:10 1857

  iter  continuity  x-velocity  y-velocity     time/iter
   144  5.0590e-04  6.9167e-08  1.5313e-07  0:05:44 1856
   145  5.0247e-04  6.8022e-08  1.5264e-07  0:10:46 1855
   146  5.0092e-04  6.8343e-08  1.5122e-07  0:08:37 1854
   147  4.9731e-04  6.7215e-08  1.5071e-07  0:06:53 1853
   148  4.9560e-04  6.7536e-08  1.4929e-07  0:11:41 1852
   149  4.9192e-04  6.6427e-08  1.4877e-07  0:09:20 1851
   150  4.8886e-04  6.5885e-08  1.4793e-07  0:07:28 1850
   151  4.8745e-04  6.6516e-08  1.4633e-07  0:05:58 1849
   152  4.8371e-04  6.5344e-08  1.4575e-07  0:10:56 1848
   153  4.8201e-04  6.5755e-08  1.4432e-07  0:08:44 1847
   154  4.7842e-04  6.4656e-08  1.4381e-07  0:06:59 1846

  iter  continuity  x-velocity  y-velocity     time/iter
   155  4.7541e-04  6.4093e-08  1.4303e-07  0:11:44 1845
   156  4.7406e-04  6.4700e-08  1.4152e-07  0:09:23 1844
   157  4.7059e-04  6.3595e-08  1.4097e-07  0:07:30 1843
   158  4.6772e-04  6.3077e-08  1.4021e-07  0:06:00 1842
   159  4.6645e-04  6.3683e-08  1.3874e-07  0:10:56 1841
   160  4.6296e-04  6.2561e-08  1.3823e-07  0:08:45 1840
   161  4.5998e-04  6.1986e-08  1.3747e-07  0:06:59 1839
   162  4.5849e-04  6.2528e-08  1.3601e-07  0:05:35 1838
   163  4.5467e-04  6.1369e-08  1.3549e-07  0:10:36 1837
   164  4.5164e-04  6.0701e-08  1.3473e-07  0:08:28 1836
   165  4.5017e-04  6.1123e-08  1.3330e-07  0:06:46 1835

  iter  continuity  x-velocity  y-velocity     time/iter
   166  4.4662e-04  5.9955e-08  1.3280e-07  0:05:25 1834
   167  4.4364e-04  5.9312e-08  1.3208e-07  0:10:26 1833
   168  4.4239e-04  5.9759e-08  1.3070e-07  0:08:21 1832
   169  4.3897e-04  5.8674e-08  1.3024e-07  0:06:40 1831
   170  4.3615e-04  5.8127e-08  1.2955e-07  0:11:26 1830
   171  4.3506e-04  5.8671e-08  1.2823e-07  0:09:09 1829
   172  4.3180e-04  5.7665e-08  1.2780e-07  0:07:19 1828
   173  4.2920e-04  5.7161e-08  1.2716e-07  0:11:56 1827
   174  4.2835e-04  5.7700e-08  1.2590e-07  0:09:33 1826
   175  4.2536e-04  5.6714e-08  1.2550e-07  0:07:38 1825
   176  4.2305e-04  5.6221e-08  1.2489e-07  0:12:11 1824

  iter  continuity  x-velocity  y-velocity     time/iter
   177  4.2245e-04  5.6755e-08  1.2369e-07  0:09:44 1823
   178  4.1965e-04  5.5783e-08  1.2334e-07  0:07:47 1822
   179  4.1746e-04  5.5298e-08  1.2279e-07  0:06:14 1821
   180  4.1694e-04  5.5830e-08  1.2165e-07  0:11:03 1820
   181  4.1422e-04  5.4878e-08  1.2134e-07  0:08:50 1819
   182  4.1212e-04  5.4404e-08  1.2081e-07  0:07:04 1818
   183  4.1179e-04  5.4935e-08  1.1970e-07  0:05:39 1817
   184  4.0921e-04  5.4000e-08  1.1942e-07  0:10:34 1816
   185  4.0719e-04  5.3539e-08  1.1893e-07  0:08:27 1815
   186  4.0682e-04  5.4071e-08  1.1785e-07  0:06:45 1814
   187  4.0412e-04  5.3158e-08  1.1756e-07  0:05:24 1813

  iter  continuity  x-velocity  y-velocity     time/iter
   188  4.0197e-04  5.2707e-08  1.1704e-07  0:10:22 1812
   189  4.0146e-04  5.3224e-08  1.1594e-07  0:08:17 1811
   190  3.9861e-04  5.2319e-08  1.1561e-07  0:06:37 1810
   191  3.9630e-04  5.1867e-08  1.1508e-07  0:11:19 1809
   192  3.9421e-04  5.1604e-08  1.1444e-07  0:09:03 1808
   193  3.9372e-04  5.2220e-08  1.1331e-07  0:07:14 1807
   194  3.9070e-04  5.1281e-08  1.1296e-07  0:05:47 1806
   195  3.8837e-04  5.0825e-08  1.1243e-07  0:10:39 1805
   196  3.8788e-04  5.1327e-08  1.1137e-07  0:08:31 1804
   197  3.8515e-04  5.0474e-08  1.1107e-07  0:06:48 1803
   198  3.8300e-04  5.0016e-08  1.1059e-07  0:05:26 1802

  iter  continuity  x-velocity  y-velocity     time/iter
   199  3.8120e-04  4.9747e-08  1.1004e-07  0:10:21 1801
   200  3.8111e-04  5.0329e-08  1.0901e-07  0:08:17 1800
   201  3.7849e-04  4.9446e-08  1.0874e-07  0:06:37 1799
   202  3.7652e-04  4.9017e-08  1.0829e-07  0:05:18 1798
   203  3.7486e-04  4.8764e-08  1.0775e-07  0:10:13 1797
   204  3.7488e-04  4.9347e-08  1.0676e-07  0:08:10 1796
   205  3.7237e-04  4.8497e-08  1.0649e-07  0:06:32 1795
   206  3.7045e-04  4.8068e-08  1.0606e-07  0:11:12 1794
   207  3.6882e-04  4.7810e-08  1.0554e-07  0:08:58 1793
   208  3.6882e-04  4.8372e-08  1.0457e-07  0:07:10 1792
   209  3.6638e-04  4.7547e-08  1.0433e-07  0:05:44 1791

  iter  continuity  x-velocity  y-velocity     time/iter
   210  3.6454e-04  4.7127e-08  1.0392e-07  0:10:33 1790
   211  3.6298e-04  4.6876e-08  1.0344e-07  0:08:26 1789
   212  3.6304e-04  4.7422e-08  1.0250e-07  0:06:45 1788
   213  3.6063e-04  4.6614e-08  1.0229e-07  0:11:21 1787
   214  3.5879e-04  4.6201e-08  1.0190e-07  0:09:04 1786
   215  3.5723e-04  4.5959e-08  1.0143e-07  0:07:15 1785
   216  3.5577e-04  4.5788e-08  1.0093e-07  0:05:48 1784
   217  3.5588e-04  4.6385e-08  1.0001e-07  0:10:35 1783
   218  3.5342e-04  4.5591e-08  9.9807e-08  0:08:28 1782
   219  3.5158e-04  4.5200e-08  9.9445e-08  0:06:46 1781
   220  3.5007e-04  4.4972e-08  9.9008e-08  0:05:24 1780

  iter  continuity  x-velocity  y-velocity     time/iter
   221  3.4876e-04  4.4823e-08  9.8537e-08  0:10:15 1779
   222  3.4752e-04  4.4699e-08  9.8056e-08  0:08:12 1778
   223  3.4783e-04  4.5333e-08  9.7196e-08  0:06:33 1777
   224  3.4566e-04  4.4612e-08  9.7021e-08  0:11:10 1776
   225  3.4404e-04  4.4268e-08  9.6704e-08  0:08:55 1775
   226  3.4270e-04  4.4070e-08  9.6310e-08  0:07:08 1774
   227  3.4153e-04  4.3946e-08  9.5882e-08  0:05:42 1773
   228  3.4043e-04  4.3853e-08  9.5443e-08  0:10:28 1772
   229  3.3937e-04  4.3767e-08  9.5002e-08  0:08:22 1771
   230  3.3834e-04  4.3677e-08  9.4566e-08  0:06:42 1770
   231  3.3731e-04  4.3578e-08  9.4129e-08  0:05:21 1769

  iter  continuity  x-velocity  y-velocity     time/iter
   232  3.3626e-04  4.3473e-08  9.3686e-08  0:10:10 1768
   233  3.3520e-04  4.3369e-08  9.3251e-08  0:08:08 1767
   234  3.3414e-04  4.3257e-08  9.2818e-08  0:06:30 1766
   235  3.3306e-04  4.3134e-08  9.2390e-08  0:05:12 1765
   236  3.3196e-04  4.2999e-08  9.1963e-08  0:10:02 1764
   237  3.3085e-04  4.2855e-08  9.1540e-08  0:08:01 1763
   238  3.2971e-04  4.2697e-08  9.1122e-08  0:06:25 1762
   239  3.2856e-04  4.2523e-08  9.0706e-08  0:11:00 1761
   240  3.2738e-04  4.2333e-08  9.0292e-08  0:08:48 1760
   241  3.2617e-04  4.2131e-08  8.9881e-08  0:07:02 1759
   242  3.2493e-04  4.1920e-08  8.9476e-08  0:05:37 1758

  iter  continuity  x-velocity  y-velocity     time/iter
   243  3.2371e-04  4.1701e-08  8.9078e-08  0:10:21 1757
   244  3.2231e-04  4.1436e-08  8.8682e-08  0:08:17 1756
   245  3.2106e-04  4.1164e-08  8.8285e-08  0:06:37 1755
   246  3.1981e-04  4.0902e-08  8.7898e-08  0:05:17 1754
   247  3.1860e-04  4.0653e-08  8.7519e-08  0:10:04 1753
   248  3.1744e-04  4.0418e-08  8.7144e-08  0:08:03 1752
   249  3.1633e-04  4.0193e-08  8.6772e-08  0:06:26 1751
   250  3.1520e-04  3.9998e-08  8.6406e-08  0:05:09 1750
   251  3.1409e-04  3.9846e-08  8.6042e-08  0:09:57 1749
   252  3.1298e-04  3.9710e-08  8.5678e-08  0:07:57 1748
   253  3.1187e-04  3.9572e-08  8.5317e-08  0:06:22 1747

  iter  continuity  x-velocity  y-velocity     time/iter
   254  3.1080e-04  3.9433e-08  8.4958e-08  0:05:05 1746
   255  3.0977e-04  3.9293e-08  8.4601e-08  0:09:53 1745
   256  3.0875e-04  3.9150e-08  8.4246e-08  0:07:54 1744
   257  3.0775e-04  3.9004e-08  8.3895e-08  0:06:19 1743
   258  3.0675e-04  3.8854e-08  8.3549e-08  0:05:03 1742
   259  3.0575e-04  3.8702e-08  8.3204e-08  0:09:50 1741
   260  3.0474e-04  3.8547e-08  8.2855e-08  0:07:52 1740
   261  3.0373e-04  3.8390e-08  8.2501e-08  0:06:17 1739
   262  3.0271e-04  3.8231e-08  8.2143e-08  0:05:02 1738
   263  3.0170e-04  3.8072e-08  8.1789e-08  0:09:49 1737
   264  3.0067e-04  3.7914e-08  8.1438e-08  0:07:51 1736

  iter  continuity  x-velocity  y-velocity     time/iter
   265  2.9965e-04  3.7755e-08  8.1089e-08  0:06:16 1735
   266  2.9862e-04  3.7599e-08  8.0745e-08  0:05:01 1734
   267  2.9761e-04  3.7443e-08  8.0405e-08  0:09:47 1733
   268  2.9662e-04  3.7288e-08  8.0067e-08  0:07:49 1732
   269  2.9563e-04  3.7136e-08  7.9733e-08  0:06:15 1731
   270  2.9465e-04  3.6985e-08  7.9402e-08  0:10:46 1730
   271  2.9367e-04  3.6836e-08  7.9075e-08  0:08:37 1729
   272  2.9270e-04  3.6690e-08  7.8750e-08  0:06:53 1728
   273  2.9176e-04  3.6545e-08  7.8427e-08  0:05:30 1727
   274  2.9083e-04  3.6404e-08  7.8108e-08  0:10:09 1726
   275  2.8996e-04  3.6265e-08  7.7806e-08  0:08:07 1725

  iter  continuity  x-velocity  y-velocity     time/iter
   276  2.8912e-04  3.6127e-08  7.7513e-08  0:06:29 1724
   277  2.8829e-04  3.5990e-08  7.7223e-08  0:05:11 1723
   278  2.8746e-04  3.5858e-08  7.6935e-08  0:09:53 1722
   279  2.8665e-04  3.5728e-08  7.6647e-08  0:07:54 1721
   280  2.8584e-04  3.5598e-08  7.6358e-08  0:06:19 1720
   281  2.8504e-04  3.5469e-08  7.6072e-08  0:05:03 1719
   282  2.8425e-04  3.5341e-08  7.5790e-08  0:09:46 1718
   283  2.8347e-04  3.5213e-08  7.5511e-08  0:07:49 1717
   284  2.8268e-04  3.5085e-08  7.5235e-08  0:06:15 1716
   285  2.8192e-04  3.4961e-08  7.4961e-08  0:05:00 1715
   286  2.8115e-04  3.4834e-08  7.4693e-08  0:09:42 1714

  iter  continuity  x-velocity  y-velocity     time/iter
   287  2.8038e-04  3.4708e-08  7.4427e-08  0:07:46 1713
   288  2.7960e-04  3.4581e-08  7.4160e-08  0:06:12 1712
   289  2.7882e-04  3.4457e-08  7.3893e-08  0:04:58 1711
   290  2.7802e-04  3.4333e-08  7.3623e-08  0:09:40 1710
   291  2.7721e-04  3.4208e-08  7.3351e-08  0:07:44 1709
   292  2.7638e-04  3.4081e-08  7.3078e-08  0:06:11 1708
   293  2.7553e-04  3.3953e-08  7.2802e-08  0:04:56 1707
   294  2.7467e-04  3.3825e-08  7.2525e-08  0:09:38 1706
   295  2.7378e-04  3.3700e-08  7.2248e-08  0:07:42 1705
   296  2.7287e-04  3.3576e-08  7.1969e-08  0:06:10 1704
   297  2.7196e-04  3.3457e-08  7.1690e-08  0:04:56 1703

  iter  continuity  x-velocity  y-velocity     time/iter
   298  2.7106e-04  3.3339e-08  7.1412e-08  0:09:37 1702
   299  2.7020e-04  3.3225e-08  7.1136e-08  0:07:41 1701
   300  2.6936e-04  3.3114e-08  7.0861e-08  0:06:09 1700
   301  2.6853e-04  3.3006e-08  7.0590e-08  0:04:55 1699
   302  2.6769e-04  3.2902e-08  7.0319e-08  0:09:35 1698
   303  2.6687e-04  3.2809e-08  7.0052e-08  0:07:40 1697
   304  2.6606e-04  3.2726e-08  6.9784e-08  0:06:08 1696
   305  2.6528e-04  3.2652e-08  6.9517e-08  0:04:54 1695
   306  2.6452e-04  3.2579e-08  6.9251e-08  0:09:34 1694
   307  2.6376e-04  3.2509e-08  6.8987e-08  0:07:39 1693
   308  2.6303e-04  3.2443e-08  6.8725e-08  0:06:07 1692

  iter  continuity  x-velocity  y-velocity     time/iter
   309  2.6232e-04  3.2378e-08  6.8465e-08  0:04:53 1691
   310  2.6162e-04  3.2311e-08  6.8206e-08  0:09:33 1690
   311  2.6091e-04  3.2241e-08  6.7949e-08  0:07:38 1689
   312  2.6020e-04  3.2168e-08  6.7692e-08  0:06:06 1688
   313  2.5948e-04  3.2099e-08  6.7444e-08  0:04:53 1687
   314  2.5876e-04  3.2021e-08  6.7192e-08  0:09:31 1686
   315  2.5801e-04  3.1936e-08  6.6938e-08  0:07:37 1685
   316  2.5726e-04  3.1843e-08  6.6685e-08  0:06:05 1684
   317  2.5648e-04  3.1745e-08  6.6430e-08  0:10:29 1683
   318  2.5566e-04  3.1636e-08  6.6172e-08  0:08:23 1682
   319  2.5482e-04  3.1513e-08  6.5915e-08  0:06:42 1681

  iter  continuity  x-velocity  y-velocity     time/iter
   320  2.5396e-04  3.1378e-08  6.5660e-08  0:10:57 1680
   321  2.5308e-04  3.1237e-08  6.5406e-08  0:08:45 1679
   322  2.5220e-04  3.1088e-08  6.5156e-08  0:07:00 1678
   323  2.5127e-04  3.0929e-08  6.4908e-08  0:05:36 1677
   324  2.5025e-04  3.0734e-08  6.4662e-08  0:10:04 1676
   325  2.4930e-04  3.0533e-08  6.4411e-08  0:08:03 1675
   326  2.4837e-04  3.0347e-08  6.4161e-08  0:06:26 1674
   327  2.4741e-04  3.0167e-08  6.3908e-08  0:05:09 1673
   328  2.4653e-04  2.9998e-08  6.3655e-08  0:09:41 1672
   329  2.4566e-04  2.9842e-08  6.3405e-08  0:07:45 1671
   330  2.4478e-04  2.9720e-08  6.3155e-08  0:06:11 1670

  iter  continuity  x-velocity  y-velocity     time/iter
   331  2.4391e-04  2.9630e-08  6.2910e-08  0:04:57 1669
   332  2.4305e-04  2.9548e-08  6.2669e-08  0:09:31 1668
   333  2.4221e-04  2.9461e-08  6.2431e-08  0:07:37 1667
   334  2.4144e-04  2.9374e-08  6.2197e-08  0:06:05 1666
   335  2.4069e-04  2.9283e-08  6.1965e-08  0:04:52 1665
   336  2.3995e-04  2.9190e-08  6.1735e-08  0:09:26 1664
   337  2.3921e-04  2.9093e-08  6.1507e-08  0:07:33 1663
   338  2.3848e-04  2.8992e-08  6.1282e-08  0:06:02 1662
   339  2.3774e-04  2.8889e-08  6.1058e-08  0:04:49 1661
   340  2.3701e-04  2.8785e-08  6.0835e-08  0:09:23 1660
   341  2.3628e-04  2.8678e-08  6.0613e-08  0:07:30 1659

  iter  continuity  x-velocity  y-velocity     time/iter
   342  2.3556e-04  2.8572e-08  6.0392e-08  0:06:00 1658
   343  2.3484e-04  2.8467e-08  6.0171e-08  0:04:48 1657
   344  2.3412e-04  2.8362e-08  5.9951e-08  0:09:21 1656
   345  2.3341e-04  2.8258e-08  5.9733e-08  0:07:29 1655
   346  2.3269e-04  2.8155e-08  5.9515e-08  0:05:59 1654
   347  2.3198e-04  2.8053e-08  5.9298e-08  0:04:47 1653
   348  2.3127e-04  2.7952e-08  5.9083e-08  0:09:20 1652
   349  2.3056e-04  2.7853e-08  5.8869e-08  0:07:28 1651
   350  2.2985e-04  2.7755e-08  5.8656e-08  0:05:58 1650
   351  2.2915e-04  2.7658e-08  5.8443e-08  0:04:46 1649
   352  2.2846e-04  2.7562e-08  5.8231e-08  0:09:18 1648

  iter  continuity  x-velocity  y-velocity     time/iter
   353  2.2777e-04  2.7467e-08  5.8019e-08  0:07:26 1647
   354  2.2709e-04  2.7372e-08  5.7809e-08  0:05:57 1646
   355  2.2641e-04  2.7277e-08  5.7600e-08  0:04:45 1645
   356  2.2573e-04  2.7183e-08  5.7393e-08  0:09:17 1644
   357  2.2505e-04  2.7093e-08  5.7188e-08  0:07:25 1643
   358  2.2440e-04  2.7005e-08  5.6982e-08  0:05:56 1642
   359  2.2375e-04  2.6915e-08  5.6778e-08  0:04:45 1641
   360  2.2310e-04  2.6826e-08  5.6576e-08  0:09:16 1640
   361  2.2245e-04  2.6736e-08  5.6375e-08  0:07:24 1639
   362  2.2181e-04  2.6645e-08  5.6176e-08  0:05:55 1638
   363  2.2116e-04  2.6554e-08  5.5978e-08  0:04:44 1637

  iter  continuity  x-velocity  y-velocity     time/iter
   364  2.2054e-04  2.6465e-08  5.5785e-08  0:09:14 1636
   365  2.1992e-04  2.6375e-08  5.5595e-08  0:07:23 1635
   366  2.1929e-04  2.6283e-08  5.5406e-08  0:05:54 1634
   367  2.1867e-04  2.6192e-08  5.5220e-08  0:04:43 1633
   368  2.1804e-04  2.6105e-08  5.5034e-08  0:09:13 1632
   369  2.1741e-04  2.6017e-08  5.4850e-08  0:07:22 1631
   370  2.1679e-04  2.5928e-08  5.4669e-08  0:11:19 1630
   371  2.1617e-04  2.5835e-08  5.4490e-08  0:09:03 1629
   372  2.1554e-04  2.5743e-08  5.4311e-08  0:07:14 1628
   373  2.1490e-04  2.5655e-08  5.4131e-08  0:05:47 1627
   374  2.1425e-04  2.5571e-08  5.3952e-08  0:10:03 1626

  iter  continuity  x-velocity  y-velocity     time/iter
   375  2.1359e-04  2.5487e-08  5.3774e-08  0:08:02 1625
   376  2.1295e-04  2.5410e-08  5.3596e-08  0:06:25 1624
   377  2.1232e-04  2.5334e-08  5.3419e-08  0:05:08 1623
   378  2.1174e-04  2.5263e-08  5.3243e-08  0:09:31 1622
   379  2.1118e-04  2.5193e-08  5.3069e-08  0:07:36 1621
   380  2.1063e-04  2.5129e-08  5.2897e-08  0:06:05 1620
   381  2.1009e-04  2.5068e-08  5.2726e-08  0:04:52 1619
   382  2.0956e-04  2.5019e-08  5.2558e-08  0:09:17 1618
   383  2.0905e-04  2.4980e-08  5.2392e-08  0:07:25 1617
   384  2.0859e-04  2.4949e-08  5.2228e-08  0:05:56 1616
   385  2.0813e-04  2.4918e-08  5.2066e-08  0:04:45 1615

  iter  continuity  x-velocity  y-velocity     time/iter
   386  2.0769e-04  2.4891e-08  5.1906e-08  0:09:10 1614
   387  2.0727e-04  2.4868e-08  5.1746e-08  0:07:20 1613
   388  2.0687e-04  2.4843e-08  5.1586e-08  0:05:52 1612
   389  2.0646e-04  2.4816e-08  5.1428e-08  0:04:41 1611
   390  2.0606e-04  2.4785e-08  5.1270e-08  0:09:07 1610
   391  2.0563e-04  2.4753e-08  5.1113e-08  0:07:17 1609
   392  2.0520e-04  2.4723e-08  5.0959e-08  0:05:50 1608
   393  2.0475e-04  2.4685e-08  5.0803e-08  0:04:39 1607
   394  2.0429e-04  2.4640e-08  5.0648e-08  0:09:05 1606
   395  2.0382e-04  2.4587e-08  5.0491e-08  0:07:15 1605
   396  2.0329e-04  2.4529e-08  5.0332e-08  0:05:48 1604

  iter  continuity  x-velocity  y-velocity     time/iter
   397  2.0272e-04  2.4458e-08  5.0170e-08  0:04:38 1603
   398  2.0213e-04  2.4374e-08  5.0010e-08  0:09:03 1602
   399  2.0150e-04  2.4276e-08  4.9851e-08  0:07:14 1601
   400  2.0086e-04  2.4175e-08  4.9692e-08  0:05:47 1600
   401  2.0021e-04  2.4065e-08  4.9536e-08  0:04:37 1599
   402  1.9950e-04  2.3944e-08  4.9383e-08  0:09:01 1598
   403  1.9874e-04  2.3790e-08  4.9231e-08  0:07:13 1597
   404  1.9803e-04  2.3629e-08  4.9075e-08  0:05:46 1596
   405  1.9735e-04  2.3486e-08  4.8919e-08  0:04:37 1595
   406  1.9667e-04  2.3347e-08  4.8765e-08  0:09:00 1594
   407  1.9608e-04  2.3220e-08  4.8610e-08  0:07:12 1593

  iter  continuity  x-velocity  y-velocity     time/iter
   408  1.9547e-04  2.3107e-08  4.8456e-08  0:05:45 1592
   409  1.9484e-04  2.3031e-08  4.8301e-08  0:04:36 1591
   410  1.9421e-04  2.2981e-08  4.8146e-08  0:08:59 1590
   411  1.9359e-04  2.2936e-08  4.7992e-08  0:07:11 1589
   412  1.9297e-04  2.2886e-08  4.7840e-08  0:05:44 1588
   413  1.9242e-04  2.2835e-08  4.7689e-08  0:04:35 1587
   414  1.9189e-04  2.2778e-08  4.7538e-08  0:08:57 1586
   415  1.9134e-04  2.2719e-08  4.7387e-08  0:07:10 1585
   416  1.9080e-04  2.2657e-08  4.7238e-08  0:05:43 1584
   417  1.9026e-04  2.2590e-08  4.7089e-08  0:09:51 1583
   418  1.8971e-04  2.2523e-08  4.6940e-08  0:07:53 1582

  iter  continuity  x-velocity  y-velocity     time/iter
   419  1.8917e-04  2.2451e-08  4.6792e-08  0:06:18 1581
   420  1.8863e-04  2.2377e-08  4.6644e-08  0:10:18 1580
   421  1.8809e-04  2.2304e-08  4.6498e-08  0:08:14 1579
   422  1.8755e-04  2.2230e-08  4.6353e-08  0:06:35 1578
   423  1.8701e-04  2.2157e-08  4.6209e-08  0:05:16 1577
   424  1.8648e-04  2.2085e-08  4.6066e-08  0:09:28 1576
   425  1.8595e-04  2.2014e-08  4.5924e-08  0:07:34 1575
   426  1.8543e-04  2.1944e-08  4.5783e-08  0:06:03 1574
   427  1.8490e-04  2.1875e-08  4.5643e-08  0:04:50 1573
   428  1.8439e-04  2.1808e-08  4.5503e-08  0:09:06 1572
   429  1.8387e-04  2.1741e-08  4.5364e-08  0:07:17 1571

  iter  continuity  x-velocity  y-velocity     time/iter
   430  1.8337e-04  2.1676e-08  4.5225e-08  0:05:49 1570
   431  1.8288e-04  2.1611e-08  4.5086e-08  0:04:39 1569
   432  1.8239e-04  2.1546e-08  4.4949e-08  0:08:57 1568
   433  1.8190e-04  2.1482e-08  4.4814e-08  0:07:09 1567
   434  1.8142e-04  2.1417e-08  4.4679e-08  0:05:43 1566
   435  1.8095e-04  2.1353e-08  4.4545e-08  0:04:34 1565
   436  1.8048e-04  2.1295e-08  4.4411e-08  0:08:52 1564
   437  1.8004e-04  2.1237e-08  4.4279e-08  0:07:05 1563
   438  1.7959e-04  2.1178e-08  4.4148e-08  0:05:40 1562
   439  1.7915e-04  2.1120e-08  4.4018e-08  0:04:32 1561
   440  1.7871e-04  2.1060e-08  4.3890e-08  0:08:49 1560

  iter  continuity  x-velocity  y-velocity     time/iter
   441  1.7827e-04  2.1000e-08  4.3763e-08  0:07:03 1559
   442  1.7783e-04  2.0939e-08  4.3638e-08  0:05:38 1558
   443  1.7740e-04  2.0879e-08  4.3515e-08  0:04:31 1557
   444  1.7698e-04  2.0817e-08  4.3393e-08  0:08:47 1556
   445  1.7656e-04  2.0755e-08  4.3273e-08  0:07:02 1555
   446  1.7615e-04  2.0694e-08  4.3154e-08  0:05:37 1554
   447  1.7573e-04  2.0636e-08  4.3037e-08  0:04:30 1553
   448  1.7532e-04  2.0577e-08  4.2920e-08  0:08:46 1552
   449  1.7490e-04  2.0515e-08  4.2804e-08  0:07:00 1551
   450  1.7447e-04  2.0453e-08  4.2686e-08  0:05:36 1550
   451  1.7404e-04  2.0389e-08  4.2568e-08  0:04:29 1549

  iter  continuity  x-velocity  y-velocity     time/iter
   452  1.7358e-04  2.0330e-08  4.2448e-08  0:08:44 1548
   453  1.7311e-04  2.0271e-08  4.2327e-08  0:06:59 1547
   454  1.7263e-04  2.0213e-08  4.2207e-08  0:05:35 1546
   455  1.7215e-04  2.0161e-08  4.2086e-08  0:04:28 1545
   456  1.7168e-04  2.0110e-08  4.1964e-08  0:08:43 1544
   457  1.7122e-04  2.0061e-08  4.1842e-08  0:06:58 1543
   458  1.7078e-04  2.0015e-08  4.1718e-08  0:05:34 1542
   459  1.7034e-04  1.9972e-08  4.1594e-08  0:04:27 1541
   460  1.6990e-04  1.9932e-08  4.1469e-08  0:08:42 1540
   461  1.6946e-04  1.9902e-08  4.1344e-08  0:06:57 1539
   462  1.6903e-04  1.9884e-08  4.1219e-08  0:05:33 1538

  iter  continuity  x-velocity  y-velocity     time/iter
   463  1.6864e-04  1.9869e-08  4.1094e-08  0:04:27 1537
   464  1.6824e-04  1.9854e-08  4.0970e-08  0:08:40 1536
   465  1.6786e-04  1.9844e-08  4.0845e-08  0:06:56 1535
   466  1.6751e-04  1.9835e-08  4.0720e-08  0:10:39 1534
   467  1.6718e-04  1.9825e-08  4.0595e-08  0:08:31 1533
   468  1.6686e-04  1.9811e-08  4.0471e-08  0:06:49 1532
   469  1.6653e-04  1.9794e-08  4.0348e-08  0:05:27 1531
   470  1.6619e-04  1.9777e-08  4.0225e-08  0:09:27 1530
   471  1.6583e-04  1.9760e-08  4.0105e-08  0:07:33 1529
   472  1.6546e-04  1.9735e-08  3.9983e-08  0:06:03 1528
   473  1.6509e-04  1.9701e-08  3.9860e-08  0:04:50 1527

  iter  continuity  x-velocity  y-velocity     time/iter
   474  1.6469e-04  1.9663e-08  3.9738e-08  0:08:57 1526
   475  1.6426e-04  1.9619e-08  3.9616e-08  0:07:09 1525
   476  1.6381e-04  1.9563e-08  3.9494e-08  0:05:43 1524
   477  1.6334e-04  1.9494e-08  3.9375e-08  0:04:34 1523
   478  1.6285e-04  1.9414e-08  3.9257e-08  0:03:39 1522
   479  1.6235e-04  1.9329e-08  3.9140e-08  0:08:00 1521
   480  1.6186e-04  1.9236e-08  3.9025e-08  0:06:23 1520
   481  1.6124e-04  1.9128e-08  3.8911e-08  0:05:07 1519
   482  1.6066e-04  1.8993e-08  3.8797e-08  0:04:05 1518
   483  1.6009e-04  1.8854e-08  3.8678e-08  0:08:19 1517
   484  1.5957e-04  1.8731e-08  3.8560e-08  0:06:39 1516

  iter  continuity  x-velocity  y-velocity     time/iter
   485  1.5904e-04  1.8613e-08  3.8442e-08  0:05:19 1515
   486  1.5862e-04  1.8505e-08  3.8324e-08  0:09:18 1514
   487  1.5816e-04  1.8415e-08  3.8207e-08  0:07:26 1513
   488  1.5768e-04  1.8366e-08  3.8092e-08  0:05:57 1512
   489  1.5721e-04  1.8335e-08  3.7977e-08  0:04:45 1511
   490  1.5674e-04  1.8307e-08  3.7864e-08  0:08:50 1510
   491  1.5630e-04  1.8276e-08  3.7753e-08  0:07:04 1509
   492  1.5591e-04  1.8242e-08  3.7643e-08  0:05:39 1508
   493  1.5553e-04  1.8203e-08  3.7533e-08  0:04:31 1507
   494  1.5513e-04  1.8161e-08  3.7424e-08  0:08:38 1506
   495  1.5474e-04  1.8116e-08  3.7316e-08  0:06:54 1505

  iter  continuity  x-velocity  y-velocity     time/iter
   496  1.5435e-04  1.8066e-08  3.7208e-08  0:05:31 1504
   497  1.5395e-04  1.8015e-08  3.7101e-08  0:04:25 1503
   498  1.5355e-04  1.7961e-08  3.6994e-08  0:08:32 1502
   499  1.5315e-04  1.7906e-08  3.6888e-08  0:06:49 1501
   500  1.5276e-04  1.7851e-08  3.6783e-08  0:05:27 1500
   501  1.5236e-04  1.7795e-08  3.6677e-08  0:04:22 1499
   502  1.5197e-04  1.7739e-08  3.6573e-08  0:08:29 1498
   503  1.5159e-04  1.7685e-08  3.6471e-08  0:06:47 1497
   504  1.5121e-04  1.7631e-08  3.6370e-08  0:05:25 1496
   505  1.5082e-04  1.7578e-08  3.6270e-08  0:04:20 1495
   506  1.5044e-04  1.7526e-08  3.6170e-08  0:08:27 1494

  iter  continuity  x-velocity  y-velocity     time/iter
   507  1.5005e-04  1.7475e-08  3.6070e-08  0:06:45 1493
   508  1.4966e-04  1.7425e-08  3.5971e-08  0:05:24 1492
   509  1.4928e-04  1.7376e-08  3.5871e-08  0:04:19 1491
   510  1.4890e-04  1.7327e-08  3.5771e-08  0:08:25 1490
   511  1.4852e-04  1.7278e-08  3.5671e-08  0:06:44 1489
   512  1.4815e-04  1.7230e-08  3.5572e-08  0:05:23 1488
   513  1.4777e-04  1.7181e-08  3.5473e-08  0:04:18 1487
   514  1.4740e-04  1.7134e-08  3.5375e-08  0:08:23 1486
   515  1.4703e-04  1.7091e-08  3.5277e-08  0:06:43 1485
   516  1.4668e-04  1.7047e-08  3.5179e-08  0:05:22 1484
   517  1.4633e-04  1.7002e-08  3.5081e-08  0:09:14 1483

  iter  continuity  x-velocity  y-velocity     time/iter
   518  1.4598e-04  1.6957e-08  3.4985e-08  0:07:23 1482
   519  1.4562e-04  1.6911e-08  3.4890e-08  0:05:54 1481
   520  1.4527e-04  1.6864e-08  3.4796e-08  0:04:43 1480
   521  1.4491e-04  1.6816e-08  3.4702e-08  0:08:42 1479
   522  1.4456e-04  1.6769e-08  3.4610e-08  0:06:57 1478
   523  1.4420e-04  1.6720e-08  3.4517e-08  0:05:34 1477
   524  1.4385e-04  1.6670e-08  3.4425e-08  0:04:27 1476
   525  1.4349e-04  1.6622e-08  3.4334e-08  0:08:28 1475
   526  1.4313e-04  1.6576e-08  3.4242e-08  0:06:46 1474
   527  1.4277e-04  1.6527e-08  3.4151e-08  0:05:25 1473
   528  1.4241e-04  1.6478e-08  3.4060e-08  0:09:14 1472

  iter  continuity  x-velocity  y-velocity     time/iter
   529  1.4205e-04  1.6427e-08  3.3969e-08  0:07:23 1471
   530  1.4168e-04  1.6376e-08  3.3879e-08  0:05:54 1470
   531  1.4130e-04  1.6329e-08  3.3789e-08  0:04:43 1469
   532  1.4092e-04  1.6283e-08  3.3700e-08  0:08:40 1468
   533  1.4053e-04  1.6240e-08  3.3610e-08  0:06:56 1467
   534  1.4016e-04  1.6202e-08  3.3521e-08  0:05:32 1466
   535  1.3982e-04  1.6165e-08  3.3433e-08  0:04:26 1465
   536  1.3950e-04  1.6131e-08  3.3345e-08  0:08:25 1464
   537  1.3920e-04  1.6102e-08  3.3258e-08  0:06:44 1463
   538  1.3891e-04  1.6075e-08  3.3171e-08  0:05:23 1462
   539  1.3863e-04  1.6054e-08  3.3086e-08  0:04:18 1461

  iter  continuity  x-velocity  y-velocity     time/iter
   540  1.3836e-04  1.6044e-08  3.3002e-08  0:08:18 1460
   541  1.3812e-04  1.6046e-08  3.2920e-08  0:06:38 1459
   542  1.3790e-04  1.6051e-08  3.2840e-08  0:05:19 1458
   543  1.3769e-04  1.6056e-08  3.2760e-08  0:04:15 1457
   544  1.3749e-04  1.6068e-08  3.2680e-08  0:08:15 1456
   545  1.3732e-04  1.6080e-08  3.2601e-08  0:06:36 1455
   546  1.3715e-04  1.6089e-08  3.2522e-08  0:05:16 1454
   547  1.3699e-04  1.6095e-08  3.2444e-08  0:04:13 1453
   548  1.3681e-04  1.6098e-08  3.2365e-08  0:08:13 1452
   549  1.3661e-04  1.6103e-08  3.2287e-08  0:06:34 1451
   550  1.3641e-04  1.6104e-08  3.2212e-08  0:05:15 1450

  iter  continuity  x-velocity  y-velocity     time/iter
   551  1.3619e-04  1.6097e-08  3.2134e-08  0:04:12 1449
   552  1.3597e-04  1.6081e-08  3.2055e-08  0:08:11 1448
   553  1.3572e-04  1.6062e-08  3.1976e-08  0:06:32 1447
   554  1.3544e-04  1.6035e-08  3.1897e-08  0:05:14 1446
   555  1.3513e-04  1.5995e-08  3.1817e-08  0:04:11 1445
   556  1.3480e-04  1.5942e-08  3.1740e-08  0:08:09 1444
   557  1.3445e-04  1.5882e-08  3.1663e-08  0:06:31 1443
   558  1.3408e-04  1.5814e-08  3.1587e-08  0:05:13 1442
   559  1.3373e-04  1.5738e-08  3.1514e-08  0:04:10 1441
   560  1.3321e-04  1.5641e-08  3.1441e-08  0:08:08 1440
   561  1.3280e-04  1.5523e-08  3.1366e-08  0:06:30 1439

  iter  continuity  x-velocity  y-velocity     time/iter
   562  1.3237e-04  1.5407e-08  3.1287e-08  0:05:12 1438
   563  1.3197e-04  1.5301e-08  3.1209e-08  0:04:09 1437
   564  1.3159e-04  1.5204e-08  3.1131e-08  0:08:06 1436
   565  1.3127e-04  1.5113e-08  3.1054e-08  0:06:29 1435
   566  1.3092e-04  1.5047e-08  3.0979e-08  0:05:11 1434
   567  1.3056e-04  1.5018e-08  3.0904e-08  0:08:55 1433
   568  1.3020e-04  1.4999e-08  3.0830e-08  0:07:08 1432
   569  1.2985e-04  1.4983e-08  3.0758e-08  0:05:42 1431
   570  1.2952e-04  1.4965e-08  3.0688e-08  0:04:33 1430
   571  1.2924e-04  1.4944e-08  3.0618e-08  0:08:24 1429
   572  1.2896e-04  1.4920e-08  3.0548e-08  0:06:43 1428

  iter  continuity  x-velocity  y-velocity     time/iter
   573  1.2867e-04  1.4893e-08  3.0479e-08  0:05:22 1427
   574  1.2838e-04  1.4862e-08  3.0408e-08  0:04:18 1426
   575  1.2806e-04  1.4827e-08  3.0326e-08  0:08:11 1425
   576  1.2772e-04  1.4788e-08  3.0238e-08  0:06:33 1424
   577  1.2739e-04  1.4746e-08  3.0148e-08  0:05:14 1423
   578  1.2704e-04  1.4702e-08  3.0057e-08  0:04:11 1422
   579  1.2670e-04  1.4657e-08  2.9968e-08  0:08:05 1421
   580  1.2637e-04  1.4611e-08  2.9880e-08  0:06:28 1420
   581  1.2603e-04  1.4566e-08  2.9794e-08  0:05:10 1419
   582  1.2569e-04  1.4522e-08  2.9709e-08  0:04:08 1418
   583  1.2536e-04  1.4479e-08  2.9625e-08  0:08:01 1417

  iter  continuity  x-velocity  y-velocity     time/iter
   584  1.2503e-04  1.4436e-08  2.9541e-08  0:06:25 1416
   585  1.2470e-04  1.4394e-08  2.9458e-08  0:05:08 1415
   586  1.2437e-04  1.4353e-08  2.9376e-08  0:04:06 1414
   587  1.2404e-04  1.4313e-08  2.9295e-08  0:07:59 1413
   588  1.2371e-04  1.4274e-08  2.9214e-08  0:06:23 1412
   589  1.2339e-04  1.4235e-08  2.9134e-08  0:05:06 1411
   590  1.2307e-04  1.4195e-08  2.9053e-08  0:08:47 1410
   591  1.2275e-04  1.4156e-08  2.8974e-08  0:07:01 1409
   592  1.2243e-04  1.4116e-08  2.8895e-08  0:05:37 1408
   593  1.2212e-04  1.4079e-08  2.8817e-08  0:04:29 1407
   594  1.2181e-04  1.4045e-08  2.8738e-08  0:08:16 1406

  iter  continuity  x-velocity  y-velocity     time/iter
   595  1.2152e-04  1.4010e-08  2.8660e-08  0:06:37 1405
   596  1.2125e-04  1.3974e-08  2.8581e-08  0:05:17 1404
   597  1.2097e-04  1.3940e-08  2.8506e-08  0:04:14 1403
   598  1.2070e-04  1.3905e-08  2.8432e-08  0:08:03 1402
   599  1.2044e-04  1.3869e-08  2.8362e-08  0:06:26 1401
   600  1.2019e-04  1.3833e-08  2.8293e-08  0:05:09 1400
   601  1.1994e-04  1.3798e-08  2.8226e-08  0:04:07 1399
   602  1.1970e-04  1.3763e-08  2.8163e-08  0:07:57 1398
   603  1.1945e-04  1.3727e-08  2.8100e-08  0:06:21 1397
   604  1.1922e-04  1.3696e-08  2.8039e-08  0:05:05 1396
   605  1.1898e-04  1.3664e-08  2.7979e-08  0:04:04 1395

  iter  continuity  x-velocity  y-velocity     time/iter
   606  1.1874e-04  1.3631e-08  2.7918e-08  0:07:54 1394
   607  1.1849e-04  1.3597e-08  2.7858e-08  0:06:19 1393
   608  1.1822e-04  1.3561e-08  2.7795e-08  0:05:03 1392
   609  1.1794e-04  1.3525e-08  2.7730e-08  0:04:02 1391
   610  1.1763e-04  1.3490e-08  2.7664e-08  0:07:51 1390
   611  1.1732e-04  1.3455e-08  2.7596e-08  0:06:17 1389
   612  1.1701e-04  1.3426e-08  2.7528e-08  0:05:01 1388
   613  1.1671e-04  1.3397e-08  2.7458e-08  0:08:38 1387
   614  1.1644e-04  1.3370e-08  2.7389e-08  0:06:54 1386
   615  1.1618e-04  1.3345e-08  2.7320e-08  0:05:31 1385
   616  1.1593e-04  1.3324e-08  2.7250e-08  0:04:25 1384

  iter  continuity  x-velocity  y-velocity     time/iter
   617  1.1569e-04  1.3304e-08  2.7180e-08  0:08:08 1383
   618  1.1545e-04  1.3293e-08  2.7110e-08  0:06:30 1382
   619  1.1523e-04  1.3292e-08  2.7041e-08  0:05:12 1381
   620  1.1504e-04  1.3300e-08  2.6972e-08  0:04:09 1380
   621  1.1488e-04  1.3311e-08  2.6904e-08  0:07:55 1379
   622  1.1473e-04  1.3324e-08  2.6838e-08  0:06:20 1378
   623  1.1459e-04  1.3343e-08  2.6778e-08  0:05:04 1377
   624  1.1448e-04  1.3362e-08  2.6719e-08  0:04:03 1376
   625  1.1438e-04  1.3379e-08  2.6661e-08  0:07:49 1375
   626  1.1426e-04  1.3392e-08  2.6600e-08  0:06:15 1374
   627  1.1414e-04  1.3403e-08  2.6540e-08  0:05:00 1373

  iter  continuity  x-velocity  y-velocity     time/iter
   628  1.1403e-04  1.3418e-08  2.6486e-08  0:04:00 1372
   629  1.1390e-04  1.3428e-08  2.6439e-08  0:07:46 1371
   630  1.1378e-04  1.3430e-08  2.6387e-08  0:06:12 1370
   631  1.1365e-04  1.3427e-08  2.6337e-08  0:04:58 1369
   632  1.1348e-04  1.3420e-08  2.6286e-08  0:03:58 1368
   633  1.1328e-04  1.3402e-08  2.6233e-08  0:07:44 1367
   634  1.1305e-04  1.3372e-08  2.6181e-08  0:06:11 1366
   635  1.1279e-04  1.3328e-08  2.6128e-08  0:04:56 1365
   636  1.1249e-04  1.3277e-08  2.6074e-08  0:03:57 1364
   637  1.1218e-04  1.3218e-08  2.6018e-08  0:07:42 1363
   638  1.1185e-04  1.3154e-08  2.5963e-08  0:06:09 1362

  iter  continuity  x-velocity  y-velocity     time/iter
   639  1.1134e-04  1.3055e-08  2.5906e-08  0:04:55 1361
   640  1.1096e-04  1.2944e-08  2.5844e-08  0:03:56 1360
   641  1.1056e-04  1.2840e-08  2.5777e-08  0:07:40 1359
   642  1.1018e-04  1.2742e-08  2.5711e-08  0:06:08 1358
   643  1.0985e-04  1.2654e-08  2.5645e-08  0:04:54 1357
   644  1.0955e-04  1.2573e-08  2.5578e-08  0:03:55 1356
   645  1.0922e-04  1.2525e-08  2.5514e-08  0:07:39 1355
   646  1.0889e-04  1.2508e-08  2.5448e-08  0:06:07 1354
   647  1.0857e-04  1.2500e-08  2.5383e-08  0:04:53 1353
   648  1.0826e-04  1.2491e-08  2.5320e-08  0:08:25 1352
   649  1.0799e-04  1.2479e-08  2.5257e-08  0:06:44 1351

  iter  continuity  x-velocity  y-velocity     time/iter
   650  1.0778e-04  1.2462e-08  2.5194e-08  0:05:23 1350
   651  1.0757e-04  1.2444e-08  2.5131e-08  0:04:18 1349
   652  1.0735e-04  1.2422e-08  2.5069e-08  0:07:56 1348
   653  1.0713e-04  1.2399e-08  2.5012e-08  0:06:20 1347
   654  1.0693e-04  1.2372e-08  2.4958e-08  0:05:04 1346
   655  1.0674e-04  1.2345e-08  2.4906e-08  0:04:03 1345
   656  1.0654e-04  1.2316e-08  2.4854e-08  0:07:43 1344
   657  1.0634e-04  1.2286e-08  2.4802e-08  0:06:10 1343
   658  1.0614e-04  1.2256e-08  2.4747e-08  0:04:56 1342
   659  1.0593e-04  1.2227e-08  2.4692e-08  0:03:57 1341
   660  1.0572e-04  1.2198e-08  2.4641e-08  0:07:37 1340

  iter  continuity  x-velocity  y-velocity     time/iter
   661  1.0550e-04  1.2169e-08  2.4591e-08  0:06:05 1339
   662  1.0528e-04  1.2140e-08  2.4542e-08  0:09:20 1338
   663  1.0506e-04  1.2113e-08  2.4495e-08  0:07:27 1337
   664  1.0484e-04  1.2088e-08  2.4448e-08  0:05:58 1336
   665  1.0462e-04  1.2064e-08  2.4402e-08  0:04:46 1335
   666  1.0442e-04  1.2040e-08  2.4357e-08  0:08:15 1334
   667  1.0422e-04  1.2018e-08  2.4313e-08  0:06:36 1333
   668  1.0402e-04  1.1996e-08  2.4271e-08  0:05:17 1332
   669  1.0383e-04  1.1973e-08  2.4228e-08  0:04:13 1331
   670  1.0362e-04  1.1950e-08  2.4183e-08  0:07:48 1330
   671  1.0340e-04  1.1926e-08  2.4136e-08  0:06:14 1329

  iter  continuity  x-velocity  y-velocity     time/iter
   672  1.0317e-04  1.1906e-08  2.4086e-08  0:04:59 1328
   673  1.0296e-04  1.1883e-08  2.4033e-08  0:03:59 1327
   674  1.0274e-04  1.1859e-08  2.3977e-08  0:07:36 1326
   675  1.0251e-04  1.1833e-08  2.3919e-08  0:06:05 1325
   676  1.0228e-04  1.1805e-08  2.3859e-08  0:04:52 1324
   677  1.0205e-04  1.1775e-08  2.3799e-08  0:03:53 1323
   678  1.0181e-04  1.1742e-08  2.3738e-08  0:07:31 1322
   679  1.0158e-04  1.1709e-08  2.3674e-08  0:06:00 1321
   680  1.0134e-04  1.1674e-08  2.3609e-08  0:04:48 1320
   681  1.0109e-04  1.1637e-08  2.3544e-08  0:03:50 1319
   682  1.0084e-04  1.1600e-08  2.3481e-08  0:07:28 1318

  iter  continuity  x-velocity  y-velocity     time/iter
   683  1.0059e-04  1.1566e-08  2.3419e-08  0:05:58 1317
   684  1.0033e-04  1.1530e-08  2.3362e-08  0:04:46 1316
   685  1.0008e-04  1.1493e-08  2.3303e-08  0:03:49 1315
   686  9.9810e-05  1.1454e-08  2.3241e-08  0:07:26 1314
   687  9.9531e-05  1.1414e-08  2.3179e-08  0:05:56 1313
   688  9.9248e-05  1.1378e-08  2.3117e-08  0:04:45 1312
   689  9.8970e-05  1.1343e-08  2.3062e-08  0:03:48 1311
   690  9.8719e-05  1.1312e-08  2.3012e-08  0:07:24 1310
   691  9.8489e-05  1.1289e-08  2.2963e-08  0:05:55 1309
   692  9.8271e-05  1.1266e-08  2.2916e-08  0:04:44 1308
   693  9.8087e-05  1.1249e-08  2.2868e-08  0:03:47 1307

  iter  continuity  x-velocity  y-velocity     time/iter
   694  9.7913e-05  1.1236e-08  2.2821e-08  0:07:22 1306
   695  9.7751e-05  1.1226e-08  2.2775e-08  0:05:54 1305
   696  9.7585e-05  1.1218e-08  2.2728e-08  0:04:43 1304
   697  9.7430e-05  1.1221e-08  2.2681e-08  0:03:46 1303
   698  9.7285e-05  1.1233e-08  2.2636e-08  0:07:21 1302
   699  9.7174e-05  1.1252e-08  2.2589e-08  0:05:53 1301
   700  9.7070e-05  1.1271e-08  2.2543e-08  0:04:42 1300
   701  9.6975e-05  1.1293e-08  2.2496e-08  0:03:45 1299
   702  9.6897e-05  1.1317e-08  2.2449e-08  0:07:20 1298
   703  9.6824e-05  1.1339e-08  2.2402e-08  0:05:52 1297
   704  9.6752e-05  1.1358e-08  2.2354e-08  0:04:41 1296

  iter  continuity  x-velocity  y-velocity     time/iter
   705  9.6671e-05  1.1373e-08  2.2305e-08  0:03:45 1295
   706  9.6572e-05  1.1386e-08  2.2255e-08  0:07:18 1294
   707  9.6454e-05  1.1401e-08  2.2204e-08  0:05:50 1293
   708  9.6319e-05  1.1407e-08  2.2156e-08  0:04:40 1292
   709  9.6183e-05  1.1406e-08  2.2104e-08  0:08:02 1291
   710  9.6028e-05  1.1398e-08  2.2049e-08  0:06:25 1290
   711  9.5857e-05  1.1385e-08  2.1992e-08  0:05:08 1289
   712  9.5657e-05  1.1360e-08  2.1934e-08  0:08:24 1288
   713  9.5437e-05  1.1324e-08  2.1878e-08  0:06:43 1287
   714  9.5192e-05  1.1276e-08  2.1824e-08  0:05:22 1286
   715  9.4926e-05  1.1224e-08  2.1771e-08  0:04:17 1285

  iter  continuity  x-velocity  y-velocity     time/iter
   716  9.4665e-05  1.1165e-08  2.1720e-08  0:07:43 1284
   717  9.4368e-05  1.1100e-08  2.1671e-08  0:06:10 1283
   718  9.3963e-05  1.0998e-08  2.1624e-08  0:04:56 1282
   719  9.3634e-05  1.0888e-08  2.1570e-08  0:03:56 1281
   720  9.3317e-05  1.0795e-08  2.1516e-08  0:07:25 1280
   721  9.2998e-05  1.0704e-08  2.1460e-08  0:05:56 1279
   722  9.2763e-05  1.0624e-08  2.1403e-08  0:04:44 1278
   723  9.2511e-05  1.0557e-08  2.1349e-08  0:03:47 1277
   724  9.2227e-05  1.0526e-08  2.1293e-08  0:07:17 1276
   725  9.1956e-05  1.0518e-08  2.1238e-08  0:05:49 1275
   726  9.1687e-05  1.0517e-08  2.1187e-08  0:04:39 1274

  iter  continuity  x-velocity  y-velocity     time/iter
   727  9.1430e-05  1.0513e-08  2.1138e-08  0:03:43 1273
   728  9.1229e-05  1.0506e-08  2.1091e-08  0:07:13 1272
   729  9.1049e-05  1.0495e-08  2.1044e-08  0:05:46 1271
   730  9.0855e-05  1.0483e-08  2.0995e-08  0:04:37 1270
   731  9.0665e-05  1.0467e-08  2.0947e-08  0:03:41 1269
   732  9.0474e-05  1.0446e-08  2.0899e-08  0:07:10 1268
   733  9.0282e-05  1.0423e-08  2.0851e-08  0:05:44 1267
   734  9.0090e-05  1.0398e-08  2.0803e-08  0:04:35 1266
   735  8.9899e-05  1.0371e-08  2.0755e-08  0:03:40 1265
   736  8.9710e-05  1.0343e-08  2.0707e-08  0:07:08 1264
   737  8.9521e-05  1.0316e-08  2.0659e-08  0:05:43 1263

  iter  continuity  x-velocity  y-velocity     time/iter
   738  8.9335e-05  1.0288e-08  2.0612e-08  0:04:34 1262
   739  8.9150e-05  1.0261e-08  2.0567e-08  0:03:39 1261
   740  8.8965e-05  1.0233e-08  2.0524e-08  0:07:07 1260
   741  8.8780e-05  1.0207e-08  2.0480e-08  0:05:41 1259
   742  8.8596e-05  1.0181e-08  2.0436e-08  0:04:33 1258
   743  8.8394e-05  1.0156e-08  2.0390e-08  0:03:38 1257
   744  8.8187e-05  1.0131e-08  2.0343e-08  0:07:06 1256
   745  8.7980e-05  1.0106e-08  2.0294e-08  0:05:40 1255
   746  8.7774e-05  1.0081e-08  2.0245e-08  0:04:32 1254
   747  8.7565e-05  1.0055e-08  2.0193e-08  0:03:37 1253
   748  8.7359e-05  1.0029e-08  2.0141e-08  0:07:04 1252

  iter  continuity  x-velocity  y-velocity     time/iter
   749  8.7157e-05  1.0001e-08  2.0086e-08  0:05:39 1251
   750  8.6955e-05  9.9737e-09  2.0034e-08  0:04:31 1250
   751  8.6759e-05  9.9505e-09  1.9982e-08  0:03:37 1249
   752  8.6573e-05  9.9257e-09  1.9929e-08  0:07:03 1248
   753  8.6383e-05  9.8995e-09  1.9875e-08  0:05:38 1247
   754  8.6191e-05  9.8743e-09  1.9824e-08  0:04:30 1246
   755  8.5998e-05  9.8476e-09  1.9774e-08  0:03:36 1245
   756  8.5803e-05  9.8198e-09  1.9725e-08  0:07:01 1244
   757  8.5600e-05  9.7902e-09  1.9678e-08  0:05:37 1243
   758  8.5405e-05  9.7621e-09  1.9630e-08  0:04:29 1242
   759  8.5220e-05  9.7324e-09  1.9581e-08  0:07:43 1241

  iter  continuity  x-velocity  y-velocity     time/iter
   760  8.5037e-05  9.7021e-09  1.9533e-08  0:06:10 1240
   761  8.4872e-05  9.6734e-09  1.9488e-08  0:04:56 1239
   762  8.4724e-05  9.6506e-09  1.9450e-08  0:03:57 1238
   763  8.4580e-05  9.6273e-09  1.9413e-08  0:07:17 1237
   764  8.4443e-05  9.6024e-09  1.9379e-08  0:05:49 1236
   765  8.4295e-05  9.5782e-09  1.9345e-08  0:04:39 1235
   766  8.4134e-05  9.5527e-09  1.9312e-08  0:03:43 1234
   767  8.3966e-05  9.5318e-09  1.9277e-08  0:07:05 1233
   768  8.3784e-05  9.5114e-09  1.9242e-08  0:05:40 1232
   769  8.3591e-05  9.4926e-09  1.9207e-08  0:04:31 1231
   770  8.3405e-05  9.4782e-09  1.9171e-08  0:07:43 1230

  iter  continuity  x-velocity  y-velocity     time/iter
   771  8.3241e-05  9.4638e-09  1.9135e-08  0:06:10 1229
   772  8.3100e-05  9.4530e-09  1.9099e-08  0:04:56 1228
   773  8.2975e-05  9.4445e-09  1.9061e-08  0:03:56 1227
   774  8.2857e-05  9.4388e-09  1.9023e-08  0:07:14 1226
   775  8.2736e-05  9.4356e-09  1.8984e-08  0:05:47 1225
   776  8.2628e-05  9.4434e-09  1.8947e-08  0:04:37 1224
   777  8.2531e-05  9.4637e-09  1.8910e-08  0:03:42 1223
   778  8.2465e-05  9.4862e-09  1.8873e-08  0:07:02 1222
   779  8.2404e-05  9.5093e-09  1.8836e-08  0:05:37 1221
   780  8.2336e-05  9.5370e-09  1.8796e-08  0:04:29 1220
   781  8.2278e-05  9.5636e-09  1.8753e-08  0:03:35 1219

  iter  continuity  x-velocity  y-velocity     time/iter
   782  8.2217e-05  9.5881e-09  1.8709e-08  0:06:56 1218
   783  8.2161e-05  9.6084e-09  1.8663e-08  0:05:32 1217
   784  8.2088e-05  9.6247e-09  1.8615e-08  0:04:26 1216
   785  8.2000e-05  9.6415e-09  1.8565e-08  0:03:32 1215
   786  8.1896e-05  9.6563e-09  1.8514e-08  0:06:53 1214
   787  8.1772e-05  9.6633e-09  1.8464e-08  0:05:30 1213
   788  8.1646e-05  9.6615e-09  1.8411e-08  0:04:24 1212
   789  8.1498e-05  9.6563e-09  1.8356e-08  0:03:31 1211
   790  8.1310e-05  9.6428e-09  1.8299e-08  0:06:50 1210
   791  8.1093e-05  9.6183e-09  1.8241e-08  0:05:28 1209
   792  8.0876e-05  9.5826e-09  1.8188e-08  0:04:22 1208

  iter  continuity  x-velocity  y-velocity     time/iter
   793  8.0675e-05  9.5378e-09  1.8140e-08  0:03:30 1207
   794  8.0473e-05  9.4885e-09  1.8100e-08  0:06:49 1206
   795  8.0274e-05  9.4346e-09  1.8063e-08  0:05:27 1205
   796  7.9969e-05  9.3686e-09  1.8031e-08  0:04:21 1204
   797  7.9673e-05  9.2753e-09  1.8002e-08  0:03:29 1203
   798  7.9394e-05  9.1787e-09  1.7973e-08  0:06:47 1202
   799  7.9159e-05  9.0973e-09  1.7945e-08  0:05:26 1201
   800  7.8934e-05  9.0237e-09  1.7920e-08  0:04:20 1200
   801  7.8764e-05  8.9586e-09  1.7889e-08  0:03:28 1199
   802  7.8530e-05  8.9098e-09  1.7860e-08  0:06:46 1198
   803  7.8276e-05  8.8999e-09  1.7827e-08  0:05:24 1197

  iter  continuity  x-velocity  y-velocity     time/iter
   804  7.8028e-05  8.9024e-09  1.7791e-08  0:04:19 1196
   805  7.7789e-05  8.9056e-09  1.7753e-08  0:03:27 1195
   806  7.7562e-05  8.9049e-09  1.7711e-08  0:06:44 1194
   807  7.7370e-05  8.8986e-09  1.7668e-08  0:05:23 1193
   808  7.7178e-05  8.8870e-09  1.7622e-08  0:04:18 1192
   809  7.6971e-05  8.8720e-09  1.7573e-08  0:07:25 1191
   810  7.6767e-05  8.8529e-09  1.7522e-08  0:05:56 1190
   811  7.6565e-05  8.8292e-09  1.7470e-08  0:04:44 1189
   812  7.6358e-05  8.8022e-09  1.7417e-08  0:03:47 1188
   813  7.6160e-05  8.7735e-09  1.7364e-08  0:06:59 1187
   814  7.5966e-05  8.7444e-09  1.7315e-08  0:05:35 1186

  iter  continuity  x-velocity  y-velocity     time/iter
   815  7.5779e-05  8.7150e-09  1.7270e-08  0:04:28 1185
   816  7.5585e-05  8.6855e-09  1.7226e-08  0:07:31 1184
   817  7.5391e-05  8.6564e-09  1.7182e-08  0:06:00 1183
   818  7.5197e-05  8.6280e-09  1.7138e-08  0:04:48 1182
   819  7.5005e-05  8.6002e-09  1.7093e-08  0:03:50 1181
   820  7.4813e-05  8.5729e-09  1.7048e-08  0:07:00 1180
   821  7.4606e-05  8.5460e-09  1.7002e-08  0:05:36 1179
   822  7.4393e-05  8.5198e-09  1.6955e-08  0:04:28 1178
   823  7.4186e-05  8.4942e-09  1.6908e-08  0:03:34 1177
   824  7.3992e-05  8.4696e-09  1.6861e-08  0:06:47 1176
   825  7.3805e-05  8.4456e-09  1.6814e-08  0:05:25 1175

  iter  continuity  x-velocity  y-velocity     time/iter
   826  7.3647e-05  8.4232e-09  1.6772e-08  0:04:20 1174
   827  7.3491e-05  8.4014e-09  1.6735e-08  0:03:28 1173
   828  7.3355e-05  8.3803e-09  1.6702e-08  0:06:40 1172
   829  7.3220e-05  8.3622e-09  1.6668e-08  0:05:20 1171
   830  7.3088e-05  8.3461e-09  1.6633e-08  0:04:16 1170
   831  7.2955e-05  8.3280e-09  1.6598e-08  0:03:24 1169
   832  7.2811e-05  8.3089e-09  1.6562e-08  0:06:37 1168
   833  7.2662e-05  8.2891e-09  1.6526e-08  0:05:17 1167
   834  7.2500e-05  8.2677e-09  1.6494e-08  0:04:14 1166
   835  7.2342e-05  8.2450e-09  1.6460e-08  0:03:23 1165
   836  7.2194e-05  8.2210e-09  1.6425e-08  0:06:35 1164

  iter  continuity  x-velocity  y-velocity     time/iter
   837  7.2049e-05  8.1986e-09  1.6391e-08  0:05:16 1163
   838  7.1921e-05  8.1760e-09  1.6357e-08  0:04:12 1162
   839  7.1795e-05  8.1518e-09  1.6327e-08  0:03:22 1161
   840  7.1667e-05  8.1304e-09  1.6296e-08  0:06:33 1160
   841  7.1536e-05  8.1101e-09  1.6264e-08  0:05:14 1159
   842  7.1396e-05  8.0874e-09  1.6230e-08  0:04:11 1158
   843  7.1246e-05  8.0632e-09  1.6195e-08  0:03:21 1157
   844  7.1084e-05  8.0375e-09  1.6158e-08  0:06:32 1156
   845  7.0911e-05  8.0125e-09  1.6121e-08  0:05:13 1155
   846  7.0726e-05  7.9903e-09  1.6083e-08  0:04:10 1154
   847  7.0529e-05  7.9689e-09  1.6045e-08  0:03:20 1153

  iter  continuity  x-velocity  y-velocity     time/iter
   848  7.0322e-05  7.9526e-09  1.6006e-08  0:06:30 1152
   849  7.0131e-05  7.9385e-09  1.5967e-08  0:05:12 1151
   850  6.9984e-05  7.9272e-09  1.5927e-08  0:04:09 1150
   851  6.9858e-05  7.9200e-09  1.5889e-08  0:03:19 1149
   852  6.9757e-05  7.9160e-09  1.5852e-08  0:06:29 1148
   853  6.9656e-05  7.9137e-09  1.5817e-08  0:05:11 1147
   854  6.9562e-05  7.9178e-09  1.5782e-08  0:04:08 1146
   855  6.9488e-05  7.9326e-09  1.5750e-08  0:07:08 1145
   856  6.9435e-05  7.9574e-09  1.5719e-08  0:05:42 1144
   857  6.9400e-05  7.9841e-09  1.5688e-08  0:04:33 1143
   858  6.9373e-05  8.0122e-09  1.5657e-08  0:03:38 1142

  iter  continuity  x-velocity  y-velocity     time/iter
   859  6.9353e-05  8.0456e-09  1.5627e-08  0:06:43 1141
   860  6.9353e-05  8.0778e-09  1.5596e-08  0:05:22 1140
   861  6.9355e-05  8.1079e-09  1.5566e-08  0:04:17 1139
   862  6.9355e-05  8.1344e-09  1.5535e-08  0:03:26 1138
   863  6.9342e-05  8.1577e-09  1.5504e-08  0:06:32 1137
   864  6.9314e-05  8.1836e-09  1.5473e-08  0:05:13 1136
   865  6.9270e-05  8.2045e-09  1.5443e-08  0:04:10 1135
   866  6.9215e-05  8.2178e-09  1.5414e-08  0:03:20 1134
   867  6.9156e-05  8.2233e-09  1.5383e-08  0:06:27 1133
   868  6.9059e-05  8.2249e-09  1.5351e-08  0:05:09 1132
   869  6.8930e-05  8.2166e-09  1.5318e-08  0:04:07 1131

  iter  continuity  x-velocity  y-velocity     time/iter
   870  6.8780e-05  8.1968e-09  1.5286e-08  0:03:17 1130
   871  6.8612e-05  8.1641e-09  1.5256e-08  0:06:24 1129
   872  6.8421e-05  8.1244e-09  1.5227e-08  0:05:07 1128
   873  6.8223e-05  8.0776e-09  1.5198e-08  0:04:05 1127
   874  6.8023e-05  8.0226e-09  1.5172e-08  0:03:16 1126
   875  6.7652e-05  7.9490e-09  1.5145e-08  0:06:22 1125
   876  6.7414e-05  7.8558e-09  1.5115e-08  0:05:05 1124
   877  6.7162e-05  7.7651e-09  1.5081e-08  0:04:04 1123
   878  6.6936e-05  7.6828e-09  1.5048e-08  0:03:15 1122
   879  6.6733e-05  7.6104e-09  1.5015e-08  0:06:20 1121
   880  6.6581e-05  7.5441e-09  1.4983e-08  0:05:04 1120

  iter  continuity  x-velocity  y-velocity     time/iter
   881  6.6385e-05  7.5054e-09  1.4953e-08  0:04:03 1119
   882  6.6202e-05  7.5038e-09  1.4924e-08  0:03:14 1118
   883  6.6028e-05  7.5111e-09  1.4895e-08  0:06:18 1117
   884  6.5857e-05  7.5187e-09  1.4869e-08  0:05:02 1116
   885  6.5726e-05  7.5238e-09  1.4844e-08  0:04:02 1115
   886  6.5635e-05  7.5248e-09  1.4820e-08  0:03:13 1114
   887  6.5543e-05  7.5229e-09  1.4796e-08  0:06:17 1113
   888  6.5441e-05  7.5186e-09  1.4772e-08  0:05:01 1112
   889  6.5344e-05  7.5110e-09  1.4749e-08  0:04:01 1111
   890  6.5245e-05  7.4997e-09  1.4727e-08  0:03:13 1110
   891  6.5143e-05  7.4863e-09  1.4705e-08  0:06:16 1109

  iter  continuity  x-velocity  y-velocity     time/iter
   892  6.5040e-05  7.4709e-09  1.4683e-08  0:05:00 1108
   893  6.4938e-05  7.4542e-09  1.4662e-08  0:04:00 1107
   894  6.4836e-05  7.4375e-09  1.4641e-08  0:03:12 1106
   895  6.4732e-05  7.4206e-09  1.4620e-08  0:06:14 1105
   896  6.4627e-05  7.4040e-09  1.4599e-08  0:04:59 1104
   897  6.4522e-05  7.3878e-09  1.4579e-08  0:03:59 1103
   898  6.4417e-05  7.3720e-09  1.4558e-08  0:03:11 1102
   899  6.4308e-05  7.3568e-09  1.4538e-08  0:06:13 1101
   900  6.4197e-05  7.3424e-09  1.4517e-08  0:04:58 1100
   901  6.4089e-05  7.3288e-09  1.4497e-08  0:03:58 1099
   902  6.3987e-05  7.3156e-09  1.4476e-08  0:06:50 1098

  iter  continuity  x-velocity  y-velocity     time/iter
   903  6.3887e-05  7.3030e-09  1.4456e-08  0:05:28 1097
   904  6.3785e-05  7.2905e-09  1.4436e-08  0:04:22 1096
   905  6.3682e-05  7.2779e-09  1.4415e-08  0:07:08 1095
   906  6.3576e-05  7.2650e-09  1.4394e-08  0:05:42 1094
   907  6.3469e-05  7.2517e-09  1.4372e-08  0:04:34 1093
   908  6.3363e-05  7.2421e-09  1.4350e-08  0:03:39 1092
   909  6.3266e-05  7.2327e-09  1.4326e-08  0:06:33 1091
   910  6.3168e-05  7.2216e-09  1.4301e-08  0:05:14 1090
   911  6.3066e-05  7.2103e-09  1.4274e-08  0:04:11 1089
   912  6.2961e-05  7.1979e-09  1.4248e-08  0:06:58 1088
   913  6.2851e-05  7.1838e-09  1.4221e-08  0:05:34 1087

  iter  continuity  x-velocity  y-velocity     time/iter
   914  6.2736e-05  7.1678e-09  1.4194e-08  0:04:27 1086
   915  6.2622e-05  7.1515e-09  1.4166e-08  0:03:34 1085
   916  6.2503e-05  7.1342e-09  1.4138e-08  0:06:27 1084
   917  6.2382e-05  7.1152e-09  1.4110e-08  0:05:10 1083
   918  6.2260e-05  7.0948e-09  1.4081e-08  0:04:08 1082
   919  6.2134e-05  7.0779e-09  1.4051e-08  0:03:18 1081
   920  6.2008e-05  7.0603e-09  1.4021e-08  0:06:14 1080
   921  6.1877e-05  7.0404e-09  1.3990e-08  0:04:59 1079
   922  6.1742e-05  7.0194e-09  1.3959e-08  0:03:59 1078
   923  6.1599e-05  6.9963e-09  1.3928e-08  0:03:11 1077
   924  6.1447e-05  6.9760e-09  1.3896e-08  0:06:08 1076

  iter  continuity  x-velocity  y-velocity     time/iter
   925  6.1286e-05  6.9576e-09  1.3865e-08  0:04:54 1075
   926  6.1118e-05  6.9393e-09  1.3834e-08  0:03:55 1074
   927  6.0952e-05  6.9283e-09  1.3803e-08  0:03:08 1073
   928  6.0802e-05  6.9171e-09  1.3772e-08  0:06:05 1072
   929  6.0689e-05  6.9092e-09  1.3741e-08  0:04:51 1071
   930  6.0590e-05  6.9044e-09  1.3711e-08  0:03:53 1070
   931  6.0509e-05  6.9028e-09  1.3680e-08  0:03:06 1069
   932  6.0430e-05  6.9028e-09  1.3650e-08  0:06:02 1068
   933  6.0360e-05  6.9134e-09  1.3621e-08  0:04:50 1067
   934  6.0304e-05  6.9343e-09  1.3594e-08  0:03:51 1066
   935  6.0280e-05  6.9627e-09  1.3568e-08  0:06:38 1065

  iter  continuity  x-velocity  y-velocity     time/iter
   936  6.0268e-05  6.9928e-09  1.3542e-08  0:05:18 1064
   937  6.0269e-05  7.0263e-09  1.3516e-08  0:04:14 1063
   938  6.0284e-05  7.0630e-09  1.3491e-08  0:03:23 1062
   939  6.0313e-05  7.0985e-09  1.3466e-08  0:06:15 1061
   940  6.0347e-05  7.1311e-09  1.3441e-08  0:04:59 1060
   941  6.0377e-05  7.1602e-09  1.3415e-08  0:03:59 1059
   942  6.0396e-05  7.1877e-09  1.3389e-08  0:03:11 1058
   943  6.0401e-05  7.2173e-09  1.3363e-08  0:06:04 1057
   944  6.0388e-05  7.2399e-09  1.3339e-08  0:04:51 1056
   945  6.0373e-05  7.2546e-09  1.3313e-08  0:03:53 1055
   946  6.0342e-05  7.2629e-09  1.3285e-08  0:03:06 1054

  iter  continuity  x-velocity  y-velocity     time/iter
   947  6.0279e-05  7.2664e-09  1.3257e-08  0:05:59 1053
   948  6.0188e-05  7.2592e-09  1.3229e-08  0:04:47 1052
   949  6.0076e-05  7.2402e-09  1.3202e-08  0:03:49 1051
   950  5.9941e-05  7.2083e-09  1.3175e-08  0:06:33 1050
   951  5.9782e-05  7.1723e-09  1.3149e-08  0:05:14 1049
   952  5.9613e-05  7.1276e-09  1.3124e-08  0:04:11 1048
   953  5.9439e-05  7.0812e-09  1.3099e-08  0:03:21 1047
   954  5.9101e-05  6.9970e-09  1.3075e-08  0:06:10 1046
   955  5.8875e-05  6.9024e-09  1.3045e-08  0:04:55 1045
   956  5.8647e-05  6.8197e-09  1.3013e-08  0:03:56 1044
   957  5.8425e-05  6.7411e-09  1.2981e-08  0:03:09 1043

  iter  continuity  x-velocity  y-velocity     time/iter
   958  5.8266e-05  6.6739e-09  1.2948e-08  0:05:59 1042
   959  5.8112e-05  6.6155e-09  1.2917e-08  0:04:47 1041
   960  5.7931e-05  6.5920e-09  1.2887e-08  0:03:49 1040
   961  5.7769e-05  6.5958e-09  1.2857e-08  0:03:03 1039
   962  5.7608e-05  6.6066e-09  1.2828e-08  0:05:54 1038
   963  5.7452e-05  6.6158e-09  1.2800e-08  0:04:43 1037
   964  5.7355e-05  6.6218e-09  1.2775e-08  0:03:46 1036
   965  5.7287e-05  6.6235e-09  1.2751e-08  0:03:01 1035
   966  5.7212e-05  6.6235e-09  1.2727e-08  0:05:51 1034
   967  5.7136e-05  6.6208e-09  1.2704e-08  0:04:41 1033
   968  5.7062e-05  6.6147e-09  1.2681e-08  0:03:44 1032

  iter  continuity  x-velocity  y-velocity     time/iter
   969  5.6985e-05  6.6056e-09  1.2659e-08  0:02:59 1031
   970  5.6908e-05  6.5951e-09  1.2637e-08  0:05:49 1030
   971  5.6832e-05  6.5833e-09  1.2616e-08  0:04:39 1029
   972  5.6758e-05  6.5708e-09  1.2595e-08  0:03:43 1028
   973  5.6685e-05  6.5588e-09  1.2575e-08  0:02:58 1027
   974  5.6614e-05  6.5472e-09  1.2555e-08  0:05:48 1026
   975  5.6544e-05  6.5364e-09  1.2535e-08  0:04:38 1025
   976  5.6477e-05  6.5264e-09  1.2516e-08  0:03:42 1024
   977  5.6417e-05  6.5177e-09  1.2496e-08  0:02:58 1023
   978  5.6356e-05  6.5106e-09  1.2477e-08  0:05:46 1022
   979  5.6297e-05  6.5056e-09  1.2459e-08  0:04:37 1021

  iter  continuity  x-velocity  y-velocity     time/iter
   980  5.6249e-05  6.5024e-09  1.2440e-08  0:03:41 1020
   981  5.6211e-05  6.5011e-09  1.2422e-08  0:02:57 1019
   982  5.6180e-05  6.5015e-09  1.2405e-08  0:05:45 1018
   983  5.6153e-05  6.5034e-09  1.2388e-08  0:04:36 1017
   984  5.6132e-05  6.5069e-09  1.2372e-08  0:03:40 1016
   985  5.6119e-05  6.5120e-09  1.2356e-08  0:02:56 1015
   986  5.6114e-05  6.5191e-09  1.2341e-08  0:05:44 1014
   987  5.6123e-05  6.5335e-09  1.2326e-08  0:04:35 1013
   988  5.6151e-05  6.5489e-09  1.2310e-08  0:03:39 1012
   989  5.6178e-05  6.5656e-09  1.2293e-08  0:02:55 1011
   990  5.6210e-05  6.5859e-09  1.2276e-08  0:05:42 1010

  iter  continuity  x-velocity  y-velocity     time/iter
   991  5.6252e-05  6.6080e-09  1.2258e-08  0:04:33 1009
   992  5.6301e-05  6.6329e-09  1.2241e-08  0:03:39 1008
   993  5.6362e-05  6.6610e-09  1.2224e-08  0:02:55 1007
   994  5.6439e-05  6.6955e-09  1.2207e-08  0:05:41 1006
   995  5.6540e-05  6.7356e-09  1.2190e-08  0:04:32 1005
   996  5.6670e-05  6.7828e-09  1.2174e-08  0:03:38 1004
   997  5.6838e-05  6.8410e-09  1.2158e-08  0:02:54 1003
   998  5.7081e-05  6.9203e-09  1.2144e-08  0:05:39 1002
   999  5.7377e-05  7.0131e-09  1.2132e-08  0:04:31 1001
  1000  5.7730e-05  7.1208e-09  1.2121e-08  0:03:37 1000
  1001  5.8147e-05  7.2465e-09  1.2113e-08  0:06:13  999

  iter  continuity  x-velocity  y-velocity     time/iter
  1002  5.8633e-05  7.3919e-09  1.2106e-08  0:04:58  998
  1003  5.8799e-05  7.4901e-09  1.2102e-08  0:03:58  997
  1004  5.8780e-05  7.5313e-09  1.2092e-08  0:06:30  996
  1005  5.7879e-05  7.3876e-09  1.2079e-08  0:05:11  995
  1006  5.6975e-05  7.2739e-09  1.2043e-08  0:04:09  994
  1007  5.6437e-05  7.1853e-09  1.1993e-08  0:03:19  993
  1008  5.5976e-05  7.0969e-09  1.1944e-08  0:02:39  992
  1009  5.5529e-05  7.0110e-09  1.1899e-08  0:05:25  991
  1010  5.5083e-05  6.9332e-09  1.1861e-08  0:04:20  990
  1011  5.4655e-05  6.8604e-09  1.1829e-08  0:03:28  989
  1012  5.4340e-05  6.8009e-09  1.1799e-08  0:02:46  988

  iter  continuity  x-velocity  y-velocity     time/iter
  1013  5.4082e-05  6.7580e-09  1.1772e-08  0:05:30  987
  1014  5.3946e-05  6.7252e-09  1.1746e-08  0:04:24  986
  1015  5.3841e-05  6.6978e-09  1.1722e-08  0:03:31  985
  1016  5.3762e-05  6.6777e-09  1.1696e-08  0:06:05  984
  1017  5.3709e-05  6.6619e-09  1.1671e-08  0:04:52  983
  1018  5.3666e-05  6.6488e-09  1.1645e-08  0:03:53  982
  1019  5.3634e-05  6.6367e-09  1.1620e-08  0:03:06  981
  1020  5.3598e-05  6.6258e-09  1.1594e-08  0:05:45  980
  1021  5.3552e-05  6.6191e-09  1.1568e-08  0:04:36  979
  1022  5.3494e-05  6.6147e-09  1.1541e-08  0:03:40  978
  1023  5.3421e-05  6.6063e-09  1.1519e-08  0:02:56  977

  iter  continuity  x-velocity  y-velocity     time/iter
  1024  5.3356e-05  6.5921e-09  1.1493e-08  0:05:36  976
  1025  5.3268e-05  6.5763e-09  1.1466e-08  0:04:28  975
  1026  5.3153e-05  6.5560e-09  1.1439e-08  0:03:35  974
  1027  5.3013e-05  6.5262e-09  1.1412e-08  0:02:51  973
  1028  5.2861e-05  6.4862e-09  1.1386e-08  0:05:31  972
  1029  5.2693e-05  6.4375e-09  1.1360e-08  0:04:25  971
  1030  5.2507e-05  6.3847e-09  1.1334e-08  0:03:32  970
  1031  5.2318e-05  6.3251e-09  1.1311e-08  0:02:49  969
  1032  5.2058e-05  6.2587e-09  1.1289e-08  0:05:29  968
  1033  5.1752e-05  6.1617e-09  1.1266e-08  0:04:23  967
  1034  5.1496e-05  6.0581e-09  1.1237e-08  0:03:30  966

  iter  continuity  x-velocity  y-velocity     time/iter
  1035  5.1267e-05  5.9715e-09  1.1208e-08  0:02:48  965
  1036  5.1027e-05  5.8888e-09  1.1177e-08  0:05:27  964
  1037  5.0877e-05  5.8159e-09  1.1146e-08  0:04:21  963
  1038  5.0692e-05  5.7594e-09  1.1118e-08  0:03:29  962
  1039  5.0500e-05  5.7424e-09  1.1089e-08  0:02:47  961
  1040  5.0321e-05  5.7425e-09  1.1060e-08  0:05:25  960
  1041  5.0139e-05  5.7470e-09  1.1032e-08  0:04:20  959
  1042  4.9977e-05  5.7499e-09  1.1005e-08  0:03:28  958
  1043  4.9864e-05  5.7488e-09  1.0978e-08  0:02:46  957
  1044  4.9765e-05  5.7437e-09  1.0951e-08  0:05:24  956
  1045  4.9654e-05  5.7373e-09  1.0924e-08  0:04:19  955

  iter  continuity  x-velocity  y-velocity     time/iter
  1046  4.9545e-05  5.7274e-09  1.0897e-08  0:06:38  954
  1047  4.9435e-05  5.7140e-09  1.0871e-08  0:05:18  953
  1048  4.9321e-05  5.6976e-09  1.0844e-08  0:04:14  952
  1049  4.9206e-05  5.6794e-09  1.0818e-08  0:03:23  951
  1050  4.9090e-05  5.6596e-09  1.0792e-08  0:05:52  950
  1051  4.8976e-05  5.6392e-09  1.0765e-08  0:04:41  949
  1052  4.8858e-05  5.6188e-09  1.0738e-08  0:03:45  948
  1053  4.8739e-05  5.5987e-09  1.0712e-08  0:03:00  947
  1054  4.8619e-05  5.5787e-09  1.0685e-08  0:05:33  946
  1055  4.8499e-05  5.5592e-09  1.0658e-08  0:04:26  945
  1056  4.8378e-05  5.5402e-09  1.0632e-08  0:03:33  944

  iter  continuity  x-velocity  y-velocity     time/iter
  1057  4.8254e-05  5.5219e-09  1.0605e-08  0:02:50  943
  1058  4.8132e-05  5.5044e-09  1.0578e-08  0:05:24  942
  1059  4.8018e-05  5.4876e-09  1.0551e-08  0:04:19  941
  1060  4.7908e-05  5.4714e-09  1.0525e-08  0:03:27  940
  1061  4.7799e-05  5.4557e-09  1.0499e-08  0:02:45  939
  1062  4.7689e-05  5.4401e-09  1.0473e-08  0:05:20  938
  1063  4.7579e-05  5.4246e-09  1.0447e-08  0:04:16  937
  1064  4.7469e-05  5.4089e-09  1.0420e-08  0:03:24  936
  1065  4.7358e-05  5.3952e-09  1.0394e-08  0:02:43  935
  1066  4.7260e-05  5.3844e-09  1.0368e-08  0:05:17  934
  1067  4.7168e-05  5.3721e-09  1.0341e-08  0:04:14  933

  iter  continuity  x-velocity  y-velocity     time/iter
  1068  4.7076e-05  5.3593e-09  1.0314e-08  0:03:23  932
  1069  4.6982e-05  5.3465e-09  1.0288e-08  0:02:42  931
  1070  4.6886e-05  5.3322e-09  1.0262e-08  0:05:15  930
  1071  4.6785e-05  5.3166e-09  1.0237e-08  0:04:12  929
  1072  4.6685e-05  5.2997e-09  1.0212e-08  0:03:21  928
  1073  4.6583e-05  5.2833e-09  1.0186e-08  0:02:41  927
  1074  4.6478e-05  5.2654e-09  1.0161e-08  0:05:14  926
  1075  4.6369e-05  5.2462e-09  1.0136e-08  0:04:11  925
  1076  4.6257e-05  5.2285e-09  1.0110e-08  0:03:20  924
  1077  4.6145e-05  5.2124e-09  1.0085e-08  0:02:40  923
  1078  4.6031e-05  5.1943e-09  1.0059e-08  0:05:12  922

  iter  continuity  x-velocity  y-velocity     time/iter
  1079  4.5913e-05  5.1747e-09  1.0033e-08  0:04:10  921
  1080  4.5790e-05  5.1535e-09  1.0008e-08  0:03:19  920
  1081  4.5659e-05  5.1326e-09  9.9820e-09  0:02:39  919
  1082  4.5521e-05  5.1153e-09  9.9566e-09  0:05:11  918
  1083  4.5374e-05  5.0986e-09  9.9314e-09  0:04:09  917
  1084  4.5223e-05  5.0861e-09  9.9063e-09  0:03:19  916
  1085  4.5087e-05  5.0766e-09  9.8813e-09  0:02:39  915
  1086  4.4984e-05  5.0686e-09  9.8559e-09  0:05:10  914
  1087  4.4896e-05  5.0643e-09  9.8307e-09  0:04:07  913
  1088  4.4833e-05  5.0631e-09  9.8058e-09  0:03:18  912
  1089  4.4775e-05  5.0643e-09  9.7815e-09  0:02:38  911

  iter  continuity  x-velocity  y-velocity     time/iter
  1090  4.4720e-05  5.0714e-09  9.7577e-09  0:05:08  910
  1091  4.4682e-05  5.0894e-09  9.7361e-09  0:04:06  909
  1092  4.4664e-05  5.1178e-09  9.7154e-09  0:03:17  908
  1093  4.4670e-05  5.1487e-09  9.6954e-09  0:02:37  907
  1094  4.4685e-05  5.1810e-09  9.6762e-09  0:05:07  906
  1095  4.4711e-05  5.2192e-09  9.6571e-09  0:04:05  905
  1096  4.4758e-05  5.2563e-09  9.6381e-09  0:03:16  904
  1097  4.4807e-05  5.2913e-09  9.6191e-09  0:05:37  903
  1098  4.4856e-05  5.3228e-09  9.5999e-09  0:04:29  902
  1099  4.4894e-05  5.3514e-09  9.5803e-09  0:03:35  901
  1100  4.4917e-05  5.3820e-09  9.5606e-09  0:02:52  900

  iter  continuity  x-velocity  y-velocity     time/iter
  1101  4.4921e-05  5.4077e-09  9.5405e-09  0:05:17  899
  1102  4.4913e-05  5.4258e-09  9.5225e-09  0:04:14  898
  1103  4.4901e-05  5.4360e-09  9.5016e-09  0:03:23  897
  1104  4.4860e-05  5.4423e-09  9.4799e-09  0:02:42  896
  1105  4.4789e-05  5.4395e-09  9.4576e-09  0:05:08  895
  1106  4.4693e-05  5.4254e-09  9.4354e-09  0:04:06  894
  1107  4.4577e-05  5.3985e-09  9.4141e-09  0:03:17  893
  1108  4.4437e-05  5.3643e-09  9.3931e-09  0:02:37  892
  1109  4.4285e-05  5.3230e-09  9.3719e-09  0:05:04  891
  1110  4.4126e-05  5.2733e-09  9.3527e-09  0:04:03  890
  1111  4.3820e-05  5.2080e-09  9.3342e-09  0:03:14  889

  iter  continuity  x-velocity  y-velocity     time/iter
  1112  4.3602e-05  5.1207e-09  9.3130e-09  0:05:33  888
  1113  4.3379e-05  5.0332e-09  9.2875e-09  0:04:26  887
  1114  4.3185e-05  4.9550e-09  9.2619e-09  0:03:32  886
  1115  4.2999e-05  4.8851e-09  9.2353e-09  0:02:50  885
  1116  4.2873e-05  4.8216e-09  9.2104e-09  0:05:12  884
  1117  4.2705e-05  4.7833e-09  9.1859e-09  0:04:10  883
  1118  4.2548e-05  4.7825e-09  9.1617e-09  0:03:20  882
  1119  4.2397e-05  4.7913e-09  9.1379e-09  0:02:39  881
  1120  4.2247e-05  4.8011e-09  9.1163e-09  0:05:03  880
  1121  4.2133e-05  4.8084e-09  9.0952e-09  0:04:02  879
  1122  4.2060e-05  4.8119e-09  9.0745e-09  0:03:14  878

  iter  continuity  x-velocity  y-velocity     time/iter
  1123  4.1987e-05  4.8120e-09  9.0533e-09  0:02:35  877
  1124  4.1905e-05  4.8097e-09  9.0325e-09  0:04:59  876
  1125  4.1826e-05  4.8040e-09  9.0123e-09  0:03:59  875
  1126  4.1744e-05  4.7945e-09  8.9924e-09  0:03:11  874
  1127  4.1658e-05  4.7826e-09  8.9725e-09  0:02:33  873
  1128  4.1571e-05  4.7687e-09  8.9528e-09  0:04:56  872
  1129  4.1484e-05  4.7533e-09  8.9330e-09  0:03:57  871
  1130  4.1396e-05  4.7376e-09  8.9132e-09  0:03:09  870
  1131  4.1305e-05  4.7218e-09  8.8935e-09  0:02:31  869
  1132  4.1214e-05  4.7063e-09  8.8738e-09  0:04:54  868
  1133  4.1121e-05  4.6909e-09  8.8542e-09  0:03:55  867

  iter  continuity  x-velocity  y-velocity     time/iter
  1134  4.1030e-05  4.6759e-09  8.8347e-09  0:03:08  866
  1135  4.0936e-05  4.6614e-09  8.8150e-09  0:02:30  865
  1136  4.0839e-05  4.6477e-09  8.7957e-09  0:04:53  864
  1137  4.0746e-05  4.6347e-09  8.7763e-09  0:03:54  863
  1138  4.0662e-05  4.6222e-09  8.7570e-09  0:03:07  862
  1139  4.0580e-05  4.6104e-09  8.7381e-09  0:02:29  861
  1140  4.0498e-05  4.5989e-09  8.7195e-09  0:04:51  860
  1141  4.0415e-05  4.5875e-09  8.7010e-09  0:03:53  859
  1142  4.0332e-05  4.5761e-09  8.6826e-09  0:03:06  858
  1143  4.0249e-05  4.5644e-09  8.6642e-09  0:05:20  857
  1144  4.0169e-05  4.5567e-09  8.6459e-09  0:04:16  856

  iter  continuity  x-velocity  y-velocity     time/iter
  1145  4.0101e-05  4.5494e-09  8.6272e-09  0:03:24  855
  1146  4.0035e-05  4.5408e-09  8.6082e-09  0:02:43  854
  1147  3.9969e-05  4.5322e-09  8.5894e-09  0:05:01  853
  1148  3.9902e-05  4.5230e-09  8.5710e-09  0:04:01  852
  1149  3.9831e-05  4.5123e-09  8.5532e-09  0:03:12  851
  1150  3.9756e-05  4.5001e-09  8.5359e-09  0:02:34  850
  1151  3.9682e-05  4.4874e-09  8.5187e-09  0:04:53  849
  1152  3.9606e-05  4.4744e-09  8.5015e-09  0:03:54  848
  1153  3.9527e-05  4.4599e-09  8.4845e-09  0:03:07  847
  1154  3.9448e-05  4.4443e-09  8.4675e-09  0:02:29  846
  1155  3.9367e-05  4.4320e-09  8.4505e-09  0:04:48  845

  iter  continuity  x-velocity  y-velocity     time/iter
  1156  3.9286e-05  4.4195e-09  8.4333e-09  0:03:50  844
  1157  3.9201e-05  4.4048e-09  8.4162e-09  0:03:04  843
  1158  3.9112e-05  4.3892e-09  8.3991e-09  0:02:27  842
  1159  3.9016e-05  4.3715e-09  8.3818e-09  0:04:46  841
  1160  3.8912e-05  4.3565e-09  8.3645e-09  0:03:48  840
  1161  3.8800e-05  4.3435e-09  8.3472e-09  0:03:02  839
  1162  3.8680e-05  4.3307e-09  8.3300e-09  0:02:26  838
  1163  3.8562e-05  4.3249e-09  8.3129e-09  0:04:44  837
  1164  3.8460e-05  4.3192e-09  8.2958e-09  0:03:47  836
  1165  3.8395e-05  4.3166e-09  8.2786e-09  0:03:01  835
  1166  3.8344e-05  4.3173e-09  8.2617e-09  0:02:25  834

  iter  continuity  x-velocity  y-velocity     time/iter
  1167  3.8310e-05  4.3209e-09  8.2452e-09  0:04:42  833
  1168  3.8279e-05  4.3263e-09  8.2288e-09  0:03:46  832
  1169  3.8256e-05  4.3414e-09  8.2136e-09  0:03:00  831
  1170  3.8246e-05  4.3670e-09  8.2001e-09  0:02:24  830
  1171  3.8266e-05  4.4000e-09  8.1870e-09  0:04:41  829
  1172  3.8298e-05  4.4350e-09  8.1747e-09  0:03:44  828
  1173  3.8341e-05  4.4730e-09  8.1627e-09  0:02:59  827
  1174  3.8399e-05  4.5141e-09  8.1507e-09  0:02:23  826
  1175  3.8468e-05  4.5541e-09  8.1387e-09  0:04:39  825
  1176  3.8542e-05  4.5911e-09  8.1265e-09  0:03:43  824
  1177  3.8610e-05  4.6245e-09  8.1139e-09  0:02:58  823

  iter  continuity  x-velocity  y-velocity     time/iter
  1178  3.8666e-05  4.6560e-09  8.1008e-09  0:05:07  822
[...]
  1959  1.0969e-05  1.5062e-09  2.0427e-09  0:00:11   41
  1960  1.1072e-05  1.5524e-09  2.0440e-09  0:00:09   40
  1961  1.1193e-05  1.5986e-09  2.0454e-09  0:00:07   39
  1962  1.1317e-05  1.6432e-09  2.0466e-09  0:00:13   38
  1963  1.1444e-05  1.6844e-09  2.0475e-09  0:00:10   37
  1964  1.1562e-05  1.7225e-09  2.0480e-09  0:00:08   36
  1965  1.1664e-05  1.7614e-09  2.0480e-09  0:00:06   35
  1966  1.1748e-05  1.7975e-09  2.0471e-09  0:00:12   34
  1967  1.1812e-05  1.8261e-09  2.0488e-09  0:00:09   33
  1968  1.1882e-05  1.8461e-09  2.0471e-09  0:00:07   32
  1969  1.1923e-05  1.8626e-09  2.0448e-09  0:00:05   31

  iter  continuity  x-velocity  y-velocity     time/iter
  1970  1.1933e-05  1.8712e-09  2.0417e-09  0:00:10   30
  1971  1.1917e-05  1.8685e-09  2.0384e-09  0:00:08   29
  1972  1.1882e-05  1.8535e-09  2.0357e-09  0:00:06   28
  1973  1.1823e-05  1.8294e-09  2.0333e-09  0:00:05   27
  1974  1.1746e-05  1.7992e-09  2.0305e-09  0:00:09   26
  1975  1.1664e-05  1.7610e-09  2.0292e-09  0:00:07   25
  1976  1.1497e-05  1.7138e-09  2.0285e-09  0:00:05   24
  1977  1.1308e-05  1.6381e-09  2.0270e-09  0:00:04   23
  1978  1.1156e-05  1.5557e-09  2.0196e-09  0:00:07   22
  1979  1.1035e-05  1.4874e-09  2.0120e-09  0:00:06   21
  1980  1.0899e-05  1.4231e-09  2.0023e-09  0:00:04   20

  iter  continuity  x-velocity  y-velocity     time/iter
  1981  1.0845e-05  1.3672e-09  1.9951e-09  0:00:03   19
  1982  1.0754e-05  1.3291e-09  1.9877e-09  0:00:06   18
  1983  1.0665e-05  1.3299e-09  1.9809e-09  0:00:05   17
  1984  1.0585e-05  1.3445e-09  1.9740e-09  0:00:03   16
  1985  1.0503e-05  1.3622e-09  1.9691e-09  0:00:06   15
  1986  1.0447e-05  1.3784e-09  1.9651e-09  0:00:04   14
  1987  1.0436e-05  1.3905e-09  1.9613e-09  0:00:03   13
  1988  1.0435e-05  1.3988e-09  1.9570e-09  0:00:05   12
  1989  1.0423e-05  1.4056e-09  1.9528e-09  0:00:03   11
  1990  1.0412e-05  1.4084e-09  1.9492e-09  0:00:03   10
  1991  1.0399e-05  1.4078e-09  1.9459e-09  0:00:02    9

  iter  continuity  x-velocity  y-velocity     time/iter
  1992  1.0381e-05  1.4042e-09  1.9425e-09  0:00:03    8
  1993  1.0362e-05  1.3987e-09  1.9393e-09  0:00:02    7
  1994  1.0341e-05  1.3916e-09  1.9359e-09  0:00:01    6
  1995  1.0321e-05  1.3838e-09  1.9324e-09  0:00:01    5
  1996  1.0297e-05  1.3758e-09  1.9288e-09  0:00:01    4
  1997  1.0272e-05  1.3680e-09  1.9253e-09  0:00:01    3
  1998  1.0246e-05  1.3604e-09  1.9218e-09  0:00:00    2
  1999  1.0220e-05  1.3529e-09  1.9182e-09  0:00:00    1
  2000  1.0192e-05  1.3460e-09  1.9145e-09  0:00:00    0

> 
adjoint/                parallel/               server/
define/                 parametric-study/       solve/
display/                plot/                   surface/
exit                    preferences/            views/
file/                   print-license-usage
mesh/                   report/

> ;create rakes
surface/rake-surface cv_inlet -0.005 -0.065 -0.005 0.065 1000

> surface/rake-surface cv_outlet 1.005 -0.065 1.005 0.065 1000

> surface/rake-surface cv_top -0.005 0.065 1.005 0.065 1000

> surface/rake-surface cv_bottom -0.005 -0.065 1.005 -0.065 1000

> surface/point-surface free-stream -15 0

> 
adjoint/                parallel/               server/
define/                 parametric-study/       solve/
display/                plot/                   surface/
exit                    preferences/            views/
file/                   print-license-usage
mesh/                   report/

> ;export data
file/export/ascii NP_CVinlet_data cv_inlet () no pressure x-velocity y-velocity dx-velocity-dx dx-velocity-dy dy-velocity-dx dy-velocity-dy q no 
Writing "NP_CVinlet_data"...

Writing information to ascii file ...
Done.

ok


Overwrite confirmations (/file/set-batch-options ...)
are on -- will therefore ignore the following journal
Error: invalid command: ok


> file/export/ascii NP_CVoutlet_data cv_outlet () no pressure x-velocity y-velocity dx-velocity-dx dx-velocity-dy dy-velocity-dx dy-velocity-dy q no 
Writing "NP_CVoutlet_data"...

Writing information to ascii file ...
Done.

ok


Overwrite confirmations (/file/set-batch-options ...)
are on -- will therefore ignore the following journal
Error: invalid command: ok


> file/export/ascii NP_CVtop_data cv_top () no pressure x-velocity y-velocity dx-velocity-dx dx-velocity-dy dy-velocity-dx dy-velocity-dy q no 
Writing "NP_CVtop_data"...

Writing information to ascii file ...
Done.

ok


Overwrite confirmations (/file/set-batch-options ...)
are on -- will therefore ignore the following journal
Error: invalid command: ok


> file/export/ascii NP_CVbottom_data cv_bottom () no pressure x-velocity y-velocity dx-velocity-dx dx-velocity-dy dy-velocity-dx dy-velocity-dy q no 
Writing "NP_CVbottom_data"...

Writing information to ascii file ...
Done.

ok


Overwrite confirmations (/file/set-batch-options ...)
are on -- will therefore ignore the following journal
Error: invalid command: ok


> file/export/ascii air_properties free-stream () no density viscosity-lam q no 
Writing "air_properties"...

Writing information to ascii file ...
Done.

ok


Overwrite confirmations (/file/set-batch-options ...)
are on -- will therefore ignore the following journal
Error: invalid command: ok


> 
adjoint/                parallel/               server/
define/                 parametric-study/       solve/
display/                plot/                   surface/
exit                    preferences/            views/
file/                   print-license-usage
mesh/                   report/

> ;flag file to know when simulation is over
file/export/ascii flag_file free-stream () no pressure q no 
Writing "flag_file"...

Writing information to ascii file ...
Done.

ok


Overwrite confirmations (/file/set-batch-options ...)
are on -- will therefore ignore the following journal
Error: invalid command: ok


> 
adjoint/                parallel/               server/
define/                 parametric-study/       solve/
display/                plot/                   surface/
exit                    preferences/            views/
file/                   print-license-usage
mesh/                   report/

> (cx-gui-do cx-set-list-tree-selections "NavigationPane*Frame2*Table1*List_Tree2" (list "Setup|Boundary Conditions|Inlet"))
(cx-gui-do cx-set-list-tree-selections "NavigationPane*Frame2*Table1*List_Tree2" (list "Setup|Boundary Conditions|Inlet"))
(cx-gui-do cx-set-list-tree-selections "NavigationPane*Frame2*Table1*List_Tree2" (list "Setup|Boundary Conditions|Inlet|inlet (velocity-inlet, id=6)"))
(cx-gui-do cx-set-list-tree-selections "NavigationPane*Frame2*Table1*List_Tree2" (list "Setup|Boundary Conditions|Inlet|inlet (velocity-inlet, id=6)"))
(cx-gui-do cx-activate-item "NavigationPane*Frame2*Table1*List_Tree2")
(cx-gui-do cx-set-list-tree-selections "NavigationPane*Frame2*Table1*List_Tree2" (list "Setup|Boundary Conditions|Inlet|inlet (velocity-inlet, id=6)"))
(cx-gui-do cx-activate-tab-index "Velocity Inlet*Frame2*Frame2" 0)
(cx-gui-do cx-activate-tab-index "Velocity Inlet*Frame2*Frame2" 1)
(cx-gui-do cx-activate-tab-index "Velocity Inlet*Frame2*Frame2" 0)
(cx-gui-do cx-activate-tab-index "Velocity Inlet*Frame2*Frame2" 2)
(cx-gui-do cx-activate-tab-index "Velocity Inlet*Frame2*Frame2" 0)
(cx-gui-do cx-activate-tab-index "Velocity Inlet*Frame2*Frame2" 3)
(cx-gui-do cx-activate-tab-index "Velocity Inlet*Frame2*Frame2" 0)
(cx-gui-do cx-activate-tab-index "Velocity Inlet*Frame2*Frame2" 4)
(cx-gui-do cx-activate-tab-index "Velocity Inlet*Frame2*Frame2" 0)
(cx-gui-do cx-activate-tab-index "Velocity Inlet*Frame2*Frame2" 5)
(cx-gui-do cx-activate-tab-index "Velocity Inlet*Frame2*Frame2" 0)
(cx-gui-do cx-activate-tab-index "Velocity Inlet*Frame2*Frame2" 6)
(cx-gui-do cx-activate-tab-index "Velocity Inlet*Frame2*Frame2" 0)
(cx-gui-do cx-activate-tab-index "Velocity Inlet*Frame2*Frame2" 7)
(cx-gui-do cx-activate-tab-index "Velocity Inlet*Frame2*Frame2" 0)
(cx-gui-do cx-activate-tab-index "Velocity Inlet*Frame2*Frame2" 8)
(cx-gui-do cx-activate-tab-index "Velocity Inlet*Frame2*Frame2" 0)
(cx-gui-do cx-set-list-tree-selections "NavigationPane*Frame2*Table1*List_Tree2" (list "Setup|Boundary Conditions|Inlet|symmetry (velocity-inlet, id=8)"))
(cx-gui-do cx-set-list-tree-selections "NavigationPane*Frame2*Table1*List_Tree2" (list "Setup|Boundary Conditions|Inlet|symmetry (velocity-inlet, id=8)"))
(cx-gui-do cx-activate-item "NavigationPane*Frame2*Table1*List_Tree2")
(cx-gui-do cx-set-list-tree-selections "NavigationPane*Frame2*Table1*List_Tree2" (list "Setup|Boundary Conditions|Inlet|symmetry (velocity-inlet, id=8)"))
(cx-gui-do cx-activate-tab-index "Velocity Inlet*Frame2*Frame2" 0)
(cx-gui-do cx-activate-tab-index "Velocity Inlet*Frame2*Frame2" 1)
(cx-gui-do cx-activate-tab-index "Velocity Inlet*Frame2*Frame2" 0)
(cx-gui-do cx-activate-tab-index "Velocity Inlet*Frame2*Frame2" 2)
(cx-gui-do cx-activate-tab-index "Velocity Inlet*Frame2*Frame2" 0)
(cx-gui-do cx-activate-tab-index "Velocity Inlet*Frame2*Frame2" 3)
(cx-gui-do cx-activate-tab-index "Velocity Inlet*Frame2*Frame2" 0)
(cx-gui-do cx-activate-tab-index "Velocity Inlet*Frame2*Frame2" 4)
(cx-gui-do cx-activate-tab-index "Velocity Inlet*Frame2*Frame2" 0)
(cx-gui-do cx-activate-tab-index "Velocity Inlet*Frame2*Frame2" 5)
(cx-gui-do cx-activate-tab-index "Velocity Inlet*Frame2*Frame2" 0)
(cx-gui-do cx-activate-tab-index "Velocity Inlet*Frame2*Frame2" 6)
(cx-gui-do cx-activate-tab-index "Velocity Inlet*Frame2*Frame2" 0)
(cx-gui-do cx-activate-tab-index "Velocity Inlet*Frame2*Frame2" 7)
(cx-gui-do cx-activate-tab-index "Velocity Inlet*Frame2*Frame2" 0)
(cx-gui-do cx-activate-tab-index "Velocity Inlet*Frame2*Frame2" 8)
(cx-gui-do cx-activate-tab-index "Velocity Inlet*Frame2*Frame2" 0)
(cx-gui-do cx-set-expression-entry "Velocity Inlet*Frame2*Frame2*Frame1(Momentum)*Table1*Table17*ExpressionEntry1(X-Velocity)" '("0.9994" . 0))
(cx-gui-do cx-activate-item "Velocity Inlet*PanelButtons*PushButton2(Cancel)")
(cx-gui-do cx-activate-item "Velocity Inlet*PanelButtons*PushButton2(Cancel)")
(cx-gui-do cx-set-list-tree-selections "NavigationPane*Frame2*Table1*List_Tree2" (list "Solution|Report Definitions|report-def-0"))
(cx-gui-do cx-set-list-tree-selections "NavigationPane*Frame2*Table1*List_Tree2" (list "Solution|Report Definitions|report-def-0"))
(cx-gui-do cx-activate-item "NavigationPane*Frame2*Table1*List_Tree2")
(cx-gui-do cx-set-list-tree-selections "NavigationPane*Frame2*Table1*List_Tree2" (list "Solution|Report Definitions|report-def-0"))
(cx-gui-do cx-activate-item "Lift Report Definition*PanelButtons*PushButton2(Cancel)")
(cx-gui-do cx-set-list-tree-selections "NavigationPane*Frame2*Table1*List_Tree2" (list "Solution|Report Definitions|lift"))
(cx-gui-do cx-set-list-tree-selections "NavigationPane*Frame2*Table1*List_Tree2" (list "Solution|Report Definitions|lift"))
(cx-gui-do cx-activate-item "NavigationPane*Frame2*Table1*List_Tree2")
(cx-gui-do cx-set-list-tree-selections "NavigationPane*Frame2*Table1*List_Tree2" (list "Solution|Report Definitions|lift"))
(cx-gui-do cx-activate-item "Lift Report Definition*PanelButtons*PushButton6(Compute)")

                            Lift                 [N]
-------------------------------- -------------------
                          porous         0.083518694
(cx-gui-do cx-activate-item "Lift Report Definition*PanelButtons*PushButton2(Cancel)")
(cx-gui-do cx-activate-item "Ribbon*Frame1*Frame2(Domain)*Table1*Table3(Mesh)*PushButton1(Display)")
(cx-gui-do cx-activate-item "Mesh Display*Table1*Frame3*Frame1*List1(Surfaces)")
(cx-gui-do cx-set-list-selections "Mesh Display*Table1*Frame3*Frame1*List1(Surfaces)" '( 0 1 2 3 4 5 6 7 8 9 10 11))
(cx-gui-do cx-activate-item "Mesh Display*Table1*Frame3*Frame1*List1(Surfaces)")
(cx-gui-do cx-activate-item "Mesh Display*PanelButtons*PushButton1(OK)")
(cx-use-window-id 51)
(dolly-camera -0.267181 0.114283 0)
(cx-gui-do cx-activate-item "Mesh Display*Table1*Frame3*Frame1*List1(Surfaces)")
(cx-gui-do cx-set-list-selections "Mesh Display*Table1*Frame3*Frame1*List1(Surfaces)" '())
(cx-gui-do cx-activate-item "Mesh Display*Table1*Frame3*Frame1*List1(Surfaces)")
(cx-gui-do cx-set-list-selections "Mesh Display*Table1*Frame3*Frame1*List1(Surfaces)" '( 4))
(cx-gui-do cx-activate-item "Mesh Display*Table1*Frame3*Frame1*List1(Surfaces)")
(cx-gui-do cx-set-list-selections "Mesh Display*Table1*Frame3*Frame1*List1(Surfaces)" '( 3 4))
(cx-gui-do cx-activate-item "Mesh Display*Table1*Frame3*Frame1*List1(Surfaces)")
(cx-gui-do cx-set-list-selections "Mesh Display*Table1*Frame3*Frame1*List1(Surfaces)" '( 2 3 4))
(cx-gui-do cx-activate-item "Mesh Display*Table1*Frame3*Frame1*List1(Surfaces)")
(cx-gui-do cx-set-list-selections "Mesh Display*Table1*Frame3*Frame1*List1(Surfaces)" '( 1 2 3 4))
(cx-gui-do cx-activate-item "Mesh Display*Table1*Frame3*Frame1*List1(Surfaces)")
(cx-gui-do cx-set-list-selections "Mesh Display*Table1*Frame3*Frame1*List1(Surfaces)" '( 0 1 2 3 4))
(cx-gui-do cx-activate-item "Mesh Display*Table1*Frame3*Frame1*List1(Surfaces)")
(cx-gui-do cx-activate-item "Mesh Display*PanelButtons*PushButton1(OK)")
(cx-gui-do cx-activate-item "Mesh Display*Table1*Frame3*Frame1*List1(Surfaces)")
(cx-gui-do cx-set-list-selections "Mesh Display*Table1*Frame3*Frame1*List1(Surfaces)" '( 0 1 2 3 4 5 6 7 8 9 10 11))
(cx-gui-do cx-activate-item "Mesh Display*Table1*Frame3*Frame1*List1(Surfaces)")
(cx-gui-do cx-activate-item "Mesh Display*PanelButtons*PushButton1(OK)")
(cx-gui-do cx-activate-item "Mesh Display*PanelButtons*PushButton2(Cancel)")
(cx-use-window-id 51)
(handle-key "??")
(cx-gui-do cx-activate-item "Ribbon*Frame1*Frame6(Results)*Table1*Table3(Graphics)*PushButton2(Contours)")
(cx-gui-do cx-activate-item "MenuBar*PopupMenuContours*New...")
(cx-gui-do cx-activate-item "Contours*Table1*Frame3*Frame2*List2(Surfaces)")
(cx-gui-do cx-set-list-selections "Contours*Table1*Frame3*Frame2*List2(Surfaces)" '( 0 1 2 3 4 5 6 7 8 9 10 11))
(cx-gui-do cx-activate-item "Contours*Table1*Frame3*Frame2*List2(Surfaces)")
(cx-gui-do cx-activate-item "Contours*PanelButtons*PushButton1(OK)")
(cx-gui-do cx-set-list-selections "Contours*Table1*Frame3*Table1*DropDownList1(Contours of)" '( 1))
(cx-gui-do cx-activate-item "Contours*Table1*Frame3*Table1*DropDownList1(Contours of)")
(cx-gui-do cx-set-list-selections "Contours*Table1*Frame3*Table1*DropDownList2" '( 1))
(cx-gui-do cx-activate-item "Contours*Table1*Frame3*Table1*DropDownList2")
(cx-gui-do cx-activate-item "Contours*PanelButtons*PushButton1(OK)")
(cx-gui-do cx-set-toggle-button2 "Contours*Table1*Frame1*Frame4*ToggleBox1(Coloring)*Banded" #t)
(cx-gui-do cx-activate-item "Contours*Table1*Frame1*Frame4*ToggleBox1(Coloring)*Banded")
(cx-gui-do cx-activate-item "Contours*PanelButtons*PushButton1(OK)")
(cx-gui-do cx-set-toggle-button2 "Contours*Table1*Frame1*Frame4*ToggleBox1(Coloring)*Smooth" #t)
(cx-gui-do cx-activate-item "Contours*Table1*Frame1*Frame4*ToggleBox1(Coloring)*Smooth")
(cx-gui-do cx-activate-item "Contours*PanelButtons*PushButton1(OK)")
(cx-gui-do cx-set-toggle-button2 "Contours*Table1*Frame1*ToggleBox1(Options)*CheckButton2(Node Values)" #f)
(cx-gui-do cx-activate-item "Contours*Table1*Frame1*ToggleBox1(Options)*CheckButton2(Node Values)")
(cx-gui-do cx-activate-item "Contours*PanelButtons*PushButton1(OK)")
(cx-gui-do cx-set-toggle-button2 "Contours*Table1*Frame1*ToggleBox1(Options)*CheckButton2(Node Values)" #t)
(cx-gui-do cx-activate-item "Contours*Table1*Frame1*ToggleBox1(Options)*CheckButton2(Node Values)")
(cx-gui-do cx-set-toggle-button2 "Contours*Table1*Frame1*ToggleBox1(Options)*CheckButton9(Draw Mesh)" #t)
(cx-gui-do cx-activate-item "Contours*Table1*Frame1*ToggleBox1(Options)*CheckButton9(Draw Mesh)")
(cx-gui-do cx-activate-item "Mesh Display*PanelButtons*PushButton1(OK)")
(cx-gui-do cx-activate-item "Mesh Display*PanelButtons*PushButton2(Cancel)")
(cx-gui-do cx-set-toggle-button2 "Contours*Table1*Frame1*ToggleBox1(Options)*CheckButton9(Draw Mesh)" #f)
(cx-gui-do cx-activate-item "Contours*Table1*Frame1*ToggleBox1(Options)*CheckButton9(Draw Mesh)")
(cx-gui-do cx-activate-item "Contours*PanelButtons*PushButton1(OK)")
(cx-gui-do cx-activate-item "Contours*Table1*Frame3*Frame2*List2(Surfaces)")
(cx-gui-do cx-set-list-selections "Contours*Table1*Frame3*Frame2*List2(Surfaces)" '())
(cx-gui-do cx-activate-item "Contours*Table1*Frame3*Frame2*List2(Surfaces)")
(cx-gui-do cx-activate-item "Contours*Table1*Frame3*Frame2*Table3(Display State)*PushButton3(New Surface)")
(cx-gui-do cx-activate-item "MenuBar*PopupMenuNewSurface*Iso-Surface...")
(cx-gui-do cx-activate-item "Iso-Surface*PanelButtons*PushButton2(Cancel)")
(cx-gui-do cx-set-list-selections "Contours*Table1*Frame3*Frame2*Table3(Display State)*DropDownList1" '( 0))
(cx-gui-do cx-activate-item "Contours*Table1*Frame3*Frame2*Table3(Display State)*DropDownList1")
(cx-gui-do cx-activate-item "Display States*PanelButtons*PushButton5(Use Active)")
(cx-gui-do cx-activate-item "Display States*PanelButtons*PushButton5(Use Active)")
(cx-gui-do cx-set-list-selections "Display States*Frame4*Table1*Table1*Table2*DropDownList2" '( 1))
(cx-gui-do cx-activate-item "Display States*Frame4*Table1*Table1*Table2*DropDownList2")
(cx-gui-do cx-activate-item "Display States*PanelButtons*PushButton1(Apply)")
(cx-gui-do cx-activate-item "Display States*PanelButtons*PushButton2(Close)")
(cx-gui-do cx-activate-item "Contours*PanelButtons*PushButton1(OK)")
Creating zone surface for porous zone
Creating zone surface for fluid zone
(cx-use-window-id 51)
(cx-gui-do cx-activate-item "Contours*Table1*Frame3*Frame2*List2(Surfaces)")
(cx-gui-do cx-set-list-selections "Contours*Table1*Frame3*Frame2*List2(Surfaces)" '( 0 1 2 3 4 5 6 7 8 9 10 11 12 13))
(cx-gui-do cx-activate-item "Contours*Table1*Frame3*Frame2*List2(Surfaces)")
(cx-gui-do cx-activate-item "Contours*PanelButtons*PushButton1(OK)")
(cx-gui-do cx-set-list-selections "Contours*Table1*Frame3*Frame2*Table3(Display State)*DropDownList1" '( 0))
(cx-gui-do cx-activate-item "Contours*Table1*Frame3*Frame2*Table3(Display State)*DropDownList1")
(cx-gui-do cx-set-list-selections "Display States*Frame4*Table1*Table1*Table2*DropDownList2" '( 4))
(cx-gui-do cx-activate-item "Display States*Frame4*Table1*Table1*Table2*DropDownList2")
(cx-gui-do cx-activate-item "Display States*PanelButtons*PushButton1(Apply)")
(cx-gui-do cx-activate-item "Display States*PanelButtons*PushButton2(Close)")
(cx-gui-do cx-activate-item "Contours*PanelButtons*PushButton1(OK)")
(cx-use-window-id 51)
(cx-gui-do cx-activate-item "Contours*Table1*Frame1*PushButton5(Colormap Options)")
(cx-gui-do cx-set-list-selections "Colormap*Table1*Frame4(Labels)*Frame3(Number Format)*DropDownList1(Type)" '( 1))
(cx-gui-do cx-activate-item "Colormap*Table1*Frame4(Labels)*Frame3(Number Format)*DropDownList1(Type)")
(cx-gui-do cx-activate-item "Colormap*PanelButtons*PushButton1(OK)")
(cx-gui-do cx-activate-item "Colormap*PanelButtons*PushButton2(Cancel)")
(cx-use-window-id 51)
(cx-gui-do cx-activate-item "Contours*PanelButtons*PushButton2(Cancel)")
(cx-gui-do cx-set-list-tree-selections "NavigationPane*Frame2*Table1*List_Tree2" (list "Setup|Boundary Conditions|Inlet|inlet (velocity-inlet, id=6)"))
(cx-gui-do cx-set-list-tree-selections "NavigationPane*Frame2*Table1*List_Tree2" (list "Setup|Boundary Conditions|Inlet|inlet (velocity-inlet, id=6)"))
(cx-gui-do cx-activate-item "NavigationPane*Frame2*Table1*List_Tree2")
(cx-gui-do cx-set-list-tree-selections "NavigationPane*Frame2*Table1*List_Tree2" (list "Setup|Boundary Conditions|Inlet|inlet (velocity-inlet, id=6)"))
(cx-gui-do cx-activate-item "Velocity Inlet*PanelButtons*PushButton2(Cancel)")
