Auto-Transcript Start Time:  23:38:30, 13 Aug 2025 GMT Summer Time 
Current Directory: "C:\Users\V.Chepuri\OneDrive - Cranfield University\irp\pablo\GCI\high_mesh"

              Welcome to ANSYS Fluent 2024 R2

              Copyright 1987-2024 ANSYS, Inc. All Rights Reserved.
              Unauthorized use, distribution or duplication is prohibited.
              This product is subject to U.S. laws governing export and re-export.
              For full Legal Notice, see documentation.

Build Time: May 13 2024 11:17:42 EST  Build Id: 10192  
 
Connected License Server List:	1055@cclic-2.central.cranfield.ac.uk

*********************************************
Info: Your license enables 4-way parallel execution.
For faster simulations, please start the application with the appropriate parallel options.
*********************************************


     --------------------------------------------------------------
     This is an academic version of ANSYS FLUENT. Usage of this product
     license is limited to the terms and conditions specified in your ANSYS
     license form, additional terms section.
     --------------------------------------------------------------
Host spawning Node 0 on machine "37PCL051" (win64).

-------------------------------------------------------------------------------
ID    Hostname  Core  O.S.         PID    Vendor                          
-------------------------------------------------------------------------------
n0    37PCL051  1/28  Windows-x64  22916  Intel(R) Core(TM) i7-14700      
host  37PCL051        Windows-x64  13788  Intel(R) Core(TM) i7-14700      

MPI Option Selected: intel
-------------------------------------------------------------------------------

Cleanup script file is C:\\Users\\V.Chepuri\\OneDrive - Cranfield University\\irp\\pablo\\GCI\\high_mesh\\cleanup-fluent-37PCL051-13788.bat

Posting ANSYS Product Improvement Program startup data
Done.

> (cx-gui-do cx-activate-item "Key Behavioral Changes*PanelButtons*PushButton1(OK)")
(cx-gui-do cx-activate-item "MenuBar*ReadSubMenu*Case...")
(cx-gui-do cx-set-file-dialog-entries "Select File" '( "template_medium.cas.h5") "CFF Case Files (*.cas.h5 *.msh.h5 *.MSH.h5 )")
Fast-loading "C:\PROGRA~1\ANSYSI~1\v242\fluent\fluent24.2.0\\addons\afd\lib\hdfio.bin"
Done.

37PCL051 has other FLUENT parallel processes running.                       Process affinity not being set.

Reading from 37PCL051:"C:/Users/V.Chepuri/OneDrive - Cranfield University/irp/pablo/GCI/high_mesh/template_medium.cas.h5" in NODE0 mode ...
  Reading mesh ...
      760494 cells,     4 cell zones ...
         147296 mixed cells,  zone id: 2
         432128 mixed cells,  zone id: 4
         135040 mixed cells,  zone id: 12
          46030 mixed cells,  zone id: 11
     1298304 faces,    14 face zones ...
         261462 2D interior faces,  zone id: 3
         725614 2D interior faces,  zone id: 5
             84 2D velocity-inlet faces,  zone id: 6
             76 2D pressure-outlet faces,  zone id: 7
             80 2D velocity-inlet faces,  zone id: 8
            916 2D interior faces,  zone id: 9
            912 2D interior faces,  zone id: 10
            684 2D parent-face faces,  zone id: 19
            687 2D parent-face faces,  zone id: 18
             60 2D parent-face faces,  zone id: 17
             57 2D parent-face faces,  zone id: 16
             63 2D parent-face faces,  zone id: 15
         226302 2D parent-face faces,  zone id: 14
          81307 2D parent-face faces,  zone id: 13
      409721 nodes,     1 node zone  ...
  Done.


Building...
     mesh
     materials,
     interface,
     domains,
	mixture
     zones,
	outlet
	inlet
	interior-fluid
	interior-porous
	symmetry
	upper
	lower
	fluid
	porous
WARNING: "Smooth" contours can't be displayed when node-values is set to off. Changing the Coloring type to "Banded".
     parallel,
Done.
(cx-gui-do cx-activate-item "MenuBar*ReadSubMenu*Journal...")

Reading journal file C:/Users/V.Chepuri/OneDrive - Cranfield University/irp/pablo/GCI/high_mesh/template.jou...

> ;change to correct dir

file/read-case template_medium.cas.h5 
37PCL051 has other FLUENT parallel processes running.                       Process affinity not being set.

       Clearing partially read grid.

Reading from 37PCL051:"C:\Users\V.Chepuri\OneDrive - Cranfield University\irp\pablo\GCI\high_mesh\template_medium.cas.h5" in NODE0 mode ...
  Reading mesh ...
      760494 cells,     4 cell zones ...
         147296 mixed cells,  zone id: 2
         432128 mixed cells,  zone id: 4
         135040 mixed cells,  zone id: 12
          46030 mixed cells,  zone id: 11
     1298304 faces,    14 face zones ...
         261462 2D interior faces,  zone id: 3
         725614 2D interior faces,  zone id: 5
             84 2D velocity-inlet faces,  zone id: 6
             76 2D pressure-outlet faces,  zone id: 7
             80 2D velocity-inlet faces,  zone id: 8
            916 2D interior faces,  zone id: 9
            912 2D interior faces,  zone id: 10
            684 2D parent-face faces,  zone id: 19
            687 2D parent-face faces,  zone id: 18
             60 2D parent-face faces,  zone id: 17
             57 2D parent-face faces,  zone id: 16
             63 2D parent-face faces,  zone id: 15
         226302 2D parent-face faces,  zone id: 14
          81307 2D parent-face faces,  zone id: 13
      409721 nodes,     1 node zone  ...
  Done.


Building...
     mesh
     materials,
     interface,
     domains,
	mixture
     zones,
	outlet
	inlet
	interior-fluid
	interior-porous
	symmetry
	upper
	lower
	fluid
	porous
WARNING: "Smooth" contours can't be displayed when node-values is set to off. Changing the Coloring type to "Banded".
     parallel,
Done.
OK


Overwrite confirmations (/file/set-batch-options ...)
are on -- will therefore ignore the following journal
Error: invalid command: OK


> 
adjoint/                parallel/               server/
define/                 parametric-study/       solve/
display/                plot/                   surface/
exit                    preferences/            views/
file/                   print-license-usage
mesh/                   report/

> 
adjoint/                parallel/               server/
define/                 parametric-study/       solve/
display/                plot/                   surface/
exit                    preferences/            views/
file/                   print-license-usage
mesh/                   report/

> 
adjoint/                parallel/               server/
define/                 parametric-study/       solve/
display/                plot/                   surface/
exit                    preferences/            views/
file/                   print-license-usage
mesh/                   report/

> ;run simulation
solve/initialize/initialize-flow

> solve/iterate 4000

  iter  continuity  x-velocity  y-velocity     time/iter
     1  1.0000e+00  2.3584e-05  1.2441e-02  2:13:18 3999
     2  1.0000e+00  8.9504e-05  8.5782e-03  2:13:16 3998
     3  4.9627e-01  8.7507e-05  5.7416e-03  1:59:55 3997
     4  3.0310e-01  7.5634e-05  3.5390e-03  1:49:13 3996
     5  2.2339e-01  6.3562e-05  2.0258e-03  1:40:40 3995
     6  1.7561e-01  5.5130e-05  1.1060e-03  1:33:50 3994
     7  1.4276e-01  4.9186e-05  5.8515e-04  1:28:21 3993
     8  1.1835e-01  4.4550e-05  3.0410e-04  1:23:58 3992
     9  1.0000e-01  4.0358e-05  1.5662e-04  1:20:28 3991
    10  8.5319e-02  3.6450e-05  8.0426e-05  1:17:39 3990
    11  7.3991e-02  3.2828e-05  4.1558e-05  1:28:42 3989

  iter  continuity  x-velocity  y-velocity     time/iter
    12  6.4760e-02  2.9395e-05  2.2005e-05  1:24:14 3988
    13  5.7606e-02  2.6464e-05  1.2234e-05  1:20:40 3987
    14  5.1870e-02  2.3886e-05  7.3398e-06  1:17:48 3986
    15  4.6771e-02  2.1420e-05  4.8832e-06  1:15:31 3985
    16  4.2519e-02  1.9247e-05  3.6129e-06  1:13:40 3984
    17  3.8385e-02  1.7311e-05  2.9096e-06  1:12:12 3983
    18  3.5089e-02  1.5530e-05  2.4918e-06  1:11:01 3982
    19  3.1446e-02  1.3669e-05  2.1876e-06  0:56:48 3981
    20  2.8277e-02  1.2177e-05  1.9661e-06  0:58:42 3980
    21  2.5702e-02  1.0867e-05  1.7914e-06  1:00:12 3979
    22  2.3327e-02  9.7103e-06  1.6514e-06  1:01:25 3978

  iter  continuity  x-velocity  y-velocity     time/iter
    23  2.1177e-02  8.6582e-06  1.5295e-06  1:02:23 3977
    24  1.9260e-02  7.7357e-06  1.4243e-06  1:03:08 3976
    25  1.7616e-02  6.9219e-06  1.3251e-06  1:03:45 3975
    26  1.6128e-02  6.2008e-06  1.2381e-06  1:04:14 3974
    27  1.4676e-02  5.5548e-06  1.1608e-06  1:04:37 3973
    28  1.3486e-02  4.9495e-06  1.0871e-06  0:51:41 3972
    29  1.2303e-02  4.3826e-06  1.0175e-06  0:54:34 3971
    30  1.1180e-02  3.8761e-06  9.5436e-07  0:56:53 3970
    31  1.0106e-02  3.4146e-06  8.9887e-07  0:58:43 3969
    32  9.1652e-03  3.0177e-06  8.4768e-07  1:00:12 3968
    33  8.3872e-03  2.6726e-06  8.0021e-07  1:01:22 3967

  iter  continuity  x-velocity  y-velocity     time/iter
    34  7.7003e-03  2.3722e-06  7.5733e-07  1:02:18 3966
    35  7.1705e-03  2.1151e-06  7.1803e-07  1:03:03 3965
    36  6.7139e-03  1.8985e-06  6.8248e-07  0:50:25 3964
    37  6.2020e-03  1.7151e-06  6.5264e-07  0:53:32 3963
    38  5.7319e-03  1.5519e-06  6.2575e-07  0:56:02 3962
    39  5.2662e-03  1.4153e-06  5.9788e-07  0:58:01 3961
    40  4.7676e-03  1.2632e-06  5.7409e-07  0:59:36 3960
    41  4.4204e-03  1.1704e-06  5.4765e-07  0:47:40 3959
    42  4.0781e-03  1.0576e-06  5.2741e-07  0:51:19 3958
    43  3.8135e-03  9.6557e-07  5.0792e-07  0:54:14 3957
    44  3.5768e-03  8.8518e-07  4.9077e-07  0:56:34 3956

  iter  continuity  x-velocity  y-velocity     time/iter
    45  3.3656e-03  8.1104e-07  4.7463e-07  0:45:14 3955
    46  3.1600e-03  7.4375e-07  4.5913e-07  0:49:22 3954
    47  2.9795e-03  6.8062e-07  4.4354e-07  0:52:39 3953
    48  2.7992e-03  6.2105e-07  4.2944e-07  0:55:17 3952
    49  2.6292e-03  5.6936e-07  4.1640e-07  0:44:13 3951
    50  2.5020e-03  5.3249e-07  4.0171e-07  0:48:32 3950
    51  2.3530e-03  4.8392e-07  3.9182e-07  0:51:59 3949
    52  2.2373e-03  4.5266e-07  3.7926e-07  0:54:44 3948
    53  2.1205e-03  4.2189e-07  3.6890e-07  0:56:56 3947
    54  2.0253e-03  3.9304e-07  3.5950e-07  0:58:41 3946
    55  1.9159e-03  3.6608e-07  3.5128e-07  1:00:05 3945

  iter  continuity  x-velocity  y-velocity     time/iter
    56  1.8170e-03  3.4062e-07  3.4346e-07  0:48:03 3944
    57  1.7605e-03  3.1699e-07  3.3574e-07  0:51:35 3943
    58  1.6903e-03  2.9086e-07  3.3040e-07  0:54:24 3942
    59  1.6421e-03  2.7525e-07  3.2161e-07  0:56:38 3941
    60  1.5810e-03  2.5484e-07  3.1675e-07  0:58:26 3940
    61  1.5514e-03  2.4283e-07  3.0838e-07  0:59:52 3939
    62  1.5086e-03  2.2964e-07  3.0176e-07  1:01:00 3938
    63  1.4516e-03  2.1292e-07  2.9827e-07  0:48:48 3937
    64  1.4099e-03  2.0397e-07  2.9098e-07  0:52:09 3936
    65  1.3631e-03  1.9462e-07  2.8521e-07  0:54:49 3935
    66  1.3308e-03  1.8551e-07  2.7993e-07  0:56:58 3934

  iter  continuity  x-velocity  y-velocity     time/iter
    67  1.2947e-03  1.7633e-07  2.7499e-07  0:58:40 3933
    68  1.2528e-03  1.6780e-07  2.7040e-07  1:00:02 3932
    69  1.2266e-03  1.6040e-07  2.6590e-07  1:01:07 3931
    70  1.1923e-03  1.5378e-07  2.6144e-07  0:48:53 3930
    71  1.1710e-03  1.4812e-07  2.5716e-07  0:52:11 3929
    72  1.1462e-03  1.4055e-07  2.5497e-07  0:54:50 3928
    73  1.1188e-03  1.3648e-07  2.4921e-07  0:56:57 3927
    74  1.1015e-03  1.3168e-07  2.4459e-07  0:58:38 3926
    75  1.0826e-03  1.2713e-07  2.4071e-07  0:59:59 3925
    76  1.0648e-03  1.2272e-07  2.3719e-07  1:01:03 3924
    77  1.0518e-03  1.1888e-07  2.3376e-07  1:01:54 3923

  iter  continuity  x-velocity  y-velocity     time/iter
    78  1.0434e-03  1.1517e-07  2.3034e-07  1:02:35 3922
    79  1.0271e-03  1.1246e-07  2.2713e-07  0:50:03 3921
    80  1.0157e-03  1.0972e-07  2.2387e-07  0:53:06 3920
    81  1.0105e-03  1.0749e-07  2.2073e-07  0:55:32 3919
    82  9.9969e-04  1.0582e-07  2.1756e-07  0:57:28 3918
    83  9.9095e-04  1.0458e-07  2.1451e-07  0:59:01 3917
    84  9.7437e-04  1.0335e-07  2.1160e-07  1:00:16 3916
    85  9.6136e-04  1.0157e-07  2.0884e-07  1:01:15 3915
    86  9.6018e-04  1.0012e-07  2.0610e-07  1:02:02 3914
    87  9.4742e-04  9.8842e-08  2.0341e-07  0:49:37 3913
    88  9.3882e-04  9.7361e-08  2.0064e-07  0:52:43 3912

  iter  continuity  x-velocity  y-velocity     time/iter
    89  9.2680e-04  9.5236e-08  1.9809e-07  0:55:12 3911
    90  9.1946e-04  9.3394e-08  1.9548e-07  0:57:11 3910
    91  9.1276e-04  9.1625e-08  1.9283e-07  0:58:46 3909
    92  9.0656e-04  8.9846e-08  1.9039e-07  1:00:02 3908
    93  8.9312e-04  8.8142e-08  1.8795e-07  1:01:02 3907
    94  8.8717e-04  8.6711e-08  1.8552e-07  1:01:50 3906
    95  8.8645e-04  8.4594e-08  1.8328e-07  0:49:27 3905
    96  8.7599e-04  8.2813e-08  1.8094e-07  0:52:34 3904
    97  8.5934e-04  8.1229e-08  1.7878e-07  0:55:03 3903
    98  8.6450e-04  8.0021e-08  1.7647e-07  0:57:02 3902
    99  8.5722e-04  7.8922e-08  1.7438e-07  0:58:37 3901

  iter  continuity  x-velocity  y-velocity     time/iter
   100  8.4494e-04  7.7662e-08  1.7234e-07  0:59:53 3900
   101  8.4772e-04  7.6596e-08  1.7029e-07  1:00:54 3899
   102  8.5010e-04  7.5688e-08  1.6825e-07  1:01:42 3898
   103  8.4170e-04  7.5158e-08  1.6637e-07  1:02:20 3897
   104  8.3560e-04  7.4334e-08  1.6447e-07  0:49:51 3896
   105  8.3374e-04  7.3620e-08  1.6261e-07  0:52:51 3895
   106  8.2993e-04  7.3007e-08  1.6073e-07  0:55:15 3894
   107  8.2930e-04  7.2745e-08  1.5891e-07  0:57:10 3893
   108  8.2866e-04  7.2142e-08  1.5715e-07  0:58:42 3892
   109  8.2032e-04  7.1500e-08  1.5547e-07  0:59:55 3891
   110  8.1995e-04  7.0879e-08  1.5371e-07  1:00:53 3890

  iter  continuity  x-velocity  y-velocity     time/iter
   111  8.2142e-04  7.0471e-08  1.5202e-07  1:01:40 3889
   112  8.0774e-04  6.9747e-08  1.5035e-07  1:02:17 3888
   113  8.0540e-04  6.8833e-08  1.4874e-07  1:02:46 3887
   114  7.9904e-04  6.7991e-08  1.4710e-07  0:50:12 3886
   115  7.9637e-04  6.6523e-08  1.4674e-07  0:53:06 3885
   116  7.8785e-04  6.6124e-08  1.4396e-07  0:55:25 3884
   117  7.9556e-04  6.5957e-08  1.4185e-07  0:57:16 3883
   118  7.8378e-04  6.5421e-08  1.4024e-07  0:58:44 3882
   119  7.8176e-04  6.4357e-08  1.3995e-07  0:59:55 3881
   120  7.8371e-04  6.4640e-08  1.3753e-07  0:47:55 3880
   121  7.8457e-04  6.4695e-08  1.3574e-07  0:51:15 3879

  iter  continuity  x-velocity  y-velocity     time/iter
   122  7.8387e-04  6.4747e-08  1.3432e-07  0:53:55 3878
   123  7.8809e-04  6.4748e-08  1.3310e-07  0:56:03 3877
   124  7.8171e-04  6.4986e-08  1.3188e-07  0:57:45 3876
   125  7.9055e-04  6.5304e-08  1.3066e-07  0:59:06 3875
   126  7.7936e-04  6.5753e-08  1.2952e-07  1:00:11 3874
   127  7.8229e-04  6.6034e-08  1.2835e-07  1:01:03 3873
   128  7.8610e-04  6.6147e-08  1.2709e-07  0:48:49 3872
   129  7.7009e-04  6.5479e-08  1.2697e-07  0:51:57 3871
   130  7.8279e-04  6.6158e-08  1.2473e-07  0:54:27 3870
   131  7.8385e-04  6.6451e-08  1.2310e-07  0:56:27 3869
   132  7.7749e-04  6.6611e-08  1.2187e-07  0:58:02 3868

  iter  continuity  x-velocity  y-velocity     time/iter
   133  7.6322e-04  6.5728e-08  1.2185e-07  0:59:19 3867
   134  7.5955e-04  6.5503e-08  1.1982e-07  0:47:26 3866
   135  7.5494e-04  6.4413e-08  1.1935e-07  0:50:49 3865
   136  7.5437e-04  6.4071e-08  1.1715e-07  0:53:32 3864
   137  7.4760e-04  6.2925e-08  1.1675e-07  0:55:41 3863
   138  7.5324e-04  6.3132e-08  1.1462e-07  0:57:25 3862
   139  7.5037e-04  6.2257e-08  1.1432e-07  0:58:47 3861
   140  7.5472e-04  6.2161e-08  1.1232e-07  0:47:01 3860
   141  7.3720e-04  6.0925e-08  1.1205e-07  0:50:28 3859
   142  7.3826e-04  6.1259e-08  1.1014e-07  0:53:13 3858
   143  7.2964e-04  6.0885e-08  1.0993e-07  0:55:25 3857

  iter  continuity  x-velocity  y-velocity     time/iter
   144  7.3253e-04  6.0521e-08  1.0918e-07  0:44:20 3856
   145  7.4262e-04  6.0839e-08  1.0715e-07  0:48:18 3855
   146  7.4630e-04  6.0581e-08  1.0695e-07  0:51:29 3854
   147  7.4649e-04  6.0998e-08  1.0524e-07  0:54:01 3853
   148  7.3506e-04  6.0550e-08  1.0521e-07  0:56:02 3852
   149  7.4615e-04  6.0319e-08  1.0458e-07  1:10:30 3851
   150  7.4707e-04  6.0727e-08  1.0261e-07  1:09:13 3850
   151  7.3943e-04  6.0577e-08  1.0253e-07  1:21:01 3849
   152  7.4164e-04  6.0416e-08  1.0200e-07  1:17:37 3848
   153  7.3752e-04  6.0201e-08  1.0114e-07  1:14:54 3847
   154  7.3317e-04  6.0260e-08  1.0016e-07  1:25:33 3846

  iter  continuity  x-velocity  y-velocity     time/iter
   155  7.4298e-04  6.0427e-08  9.8099e-08  1:21:14 3845
   156  7.3345e-04  5.9758e-08  9.7953e-08  1:30:36 3844
   157  7.2694e-04  5.9112e-08  9.7395e-08  1:25:16 3843
   158  7.3295e-04  5.8744e-08  9.6551e-08  1:33:49 3842
   159  7.1851e-04  5.8158e-08  9.5673e-08  1:27:50 3841
   160  7.1831e-04  5.7731e-08  9.4713e-08  1:23:03 3840
   161  7.2109e-04  5.7382e-08  9.3659e-08  1:32:01 3839
   162  7.2104e-04  5.6979e-08  9.2734e-08  1:26:23 3838
   163  7.1461e-04  5.6847e-08  9.1847e-08  1:21:53 3837
   164  7.1568e-04  5.6551e-08  9.1034e-08  1:31:04 3836
   165  7.1535e-04  5.7143e-08  8.9252e-08  1:25:37 3835

  iter  continuity  x-velocity  y-velocity     time/iter
   166  7.1115e-04  5.6829e-08  8.9322e-08  1:34:02 3834
   167  7.2074e-04  5.6692e-08  8.8936e-08  1:27:59 3833
   168  7.1286e-04  5.6634e-08  8.8391e-08  1:23:08 3832
   169  7.1503e-04  5.6765e-08  8.7760e-08  1:32:02 3831
   170  7.1951e-04  5.7665e-08  8.6072e-08  1:26:23 3830
   171  7.1730e-04  5.7432e-08  8.6085e-08  1:34:37 3829
   172  7.1370e-04  5.7875e-08  8.5728e-08  1:28:26 3828
   173  7.1384e-04  5.7849e-08  8.5175e-08  1:23:29 3827
   174  7.2110e-04  5.8114e-08  8.4438e-08  1:32:16 3826
   175  7.3233e-04  5.9239e-08  8.2804e-08  1:26:33 3825
   176  7.2117e-04  5.8933e-08  8.2881e-08  1:34:43 3824

  iter  continuity  x-velocity  y-velocity     time/iter
   177  7.1183e-04  5.8521e-08  8.2573e-08  1:28:30 3823
   178  7.1495e-04  5.7990e-08  8.1939e-08  1:23:31 3822
   179  7.0063e-04  5.7838e-08  8.1184e-08  1:32:16 3821
   180  6.9689e-04  5.7293e-08  8.0389e-08  1:26:32 3820
   181  7.0187e-04  5.6809e-08  7.9602e-08  1:21:56 3819
   182  6.9834e-04  5.6369e-08  7.8865e-08  1:30:59 3818
   183  6.9646e-04  5.6118e-08  7.8197e-08  1:25:30 3817
   184  6.9138e-04  5.5725e-08  7.7465e-08  1:33:49 3816
   185  6.8533e-04  5.5501e-08  7.6846e-08  1:27:45 3815
   186  6.8944e-04  5.5369e-08  7.6150e-08  1:22:54 3814
   187  6.9436e-04  5.5049e-08  7.5509e-08  1:31:43 3813

  iter  continuity  x-velocity  y-velocity     time/iter
   188  6.9051e-04  5.5134e-08  7.5005e-08  1:26:04 3812
   189  7.0022e-04  5.5063e-08  7.4406e-08  1:21:32 3811
   190  6.9214e-04  5.5092e-08  7.3857e-08  1:30:37 3810
   191  6.9362e-04  5.5167e-08  7.3337e-08  1:25:10 3809
   192  6.8996e-04  5.5150e-08  7.2815e-08  1:20:49 3808
   193  6.9256e-04  5.5089e-08  7.2274e-08  1:30:01 3807
   194  6.9175e-04  5.5234e-08  7.1809e-08  1:24:41 3806
   195  7.0072e-04  5.5066e-08  7.1315e-08  1:20:24 3805
   196  6.9617e-04  5.5134e-08  7.0860e-08  1:29:40 3804
   197  6.9607e-04  5.5093e-08  7.0350e-08  1:24:24 3803
   198  6.9627e-04  5.4943e-08  6.9870e-08  1:20:10 3802

  iter  continuity  x-velocity  y-velocity     time/iter
   199  6.9779e-04  5.4635e-08  6.9371e-08  1:29:28 3801
   200  6.9408e-04  5.4283e-08  6.8794e-08  1:24:13 3800
   201  6.8032e-04  5.4175e-08  6.8298e-08  1:20:01 3799
   202  6.7448e-04  5.3635e-08  6.7740e-08  1:29:19 3798
   203  6.7320e-04  5.3169e-08  6.7172e-08  1:24:05 3797
   204  6.7348e-04  5.2882e-08  6.6687e-08  1:19:55 3796
   205  6.7270e-04  5.2458e-08  6.6078e-08  1:29:13 3795
   206  6.8009e-04  5.2327e-08  6.5537e-08  1:24:00 3794
   207  6.7507e-04  5.2058e-08  6.5018e-08  1:32:28 3793
   208  6.7724e-04  5.1880e-08  6.4509e-08  1:26:36 3792
   209  6.8031e-04  5.1821e-08  6.4100e-08  1:21:54 3791

  iter  continuity  x-velocity  y-velocity     time/iter
   210  6.8135e-04  5.2055e-08  6.3646e-08  1:30:46 3790
   211  6.7001e-04  5.2194e-08  6.3198e-08  1:25:13 3789
   212  6.8056e-04  5.2469e-08  6.2827e-08  1:20:47 3788
   213  6.7473e-04  5.2447e-08  6.2444e-08  1:29:52 3787
   214  6.7959e-04  5.2704e-08  6.2022e-08  1:24:29 3786
   215  6.7418e-04  5.3005e-08  6.1574e-08  1:20:11 3785
   216  6.8750e-04  5.3173e-08  6.1221e-08  1:29:22 3784
   217  6.8078e-04  5.3511e-08  6.0822e-08  1:24:05 3783
   218  6.7899e-04  5.3726e-08  6.0368e-08  1:19:51 3782
   219  6.8783e-04  5.3777e-08  5.9962e-08  1:29:04 3781
   220  6.8372e-04  5.3960e-08  5.9565e-08  1:23:50 3780

  iter  continuity  x-velocity  y-velocity     time/iter
   221  6.8675e-04  5.3681e-08  5.9225e-08  1:19:39 3779
   222  6.7332e-04  5.3312e-08  5.8824e-08  1:28:53 3778
   223  6.6707e-04  5.3156e-08  5.8321e-08  1:23:41 3777
   224  6.6693e-04  5.2825e-08  5.7832e-08  1:19:31 3776
   225  6.5732e-04  5.2470e-08  5.7364e-08  1:28:46 3775
   226  6.5923e-04  5.2134e-08  5.6904e-08  1:23:34 3774
   227  6.5090e-04  5.1799e-08  5.6497e-08  1:32:00 3773
   228  6.5394e-04  5.1530e-08  5.6055e-08  1:26:09 3772
   229  6.5908e-04  5.0990e-08  5.5617e-08  1:21:28 3771
   230  6.5362e-04  5.0856e-08  5.5269e-08  1:30:18 3770
   231  6.5542e-04  5.0704e-08  5.4898e-08  1:24:47 3769

  iter  continuity  x-velocity  y-velocity     time/iter
   232  6.6081e-04  5.0759e-08  5.4529e-08  1:20:22 3768
   233  6.6317e-04  5.0456e-08  5.4220e-08  1:29:23 3767
   234  6.6061e-04  5.0476e-08  5.3854e-08  1:24:03 3766
   235  6.5633e-04  5.0643e-08  5.3595e-08  1:19:46 3765
   236  6.6255e-04  5.1000e-08  5.3234e-08  1:28:53 3764
   237  6.5851e-04  5.1087e-08  5.2919e-08  1:23:38 3763
   238  6.6832e-04  5.1016e-08  5.2623e-08  1:19:26 3762
   239  6.6382e-04  5.1309e-08  5.2345e-08  1:28:36 3761
   240  6.5846e-04  5.1455e-08  5.2109e-08  1:23:24 3760
   241  6.6431e-04  5.1414e-08  5.1735e-08  1:06:42 3759
   242  6.6184e-04  5.1523e-08  5.1389e-08  1:05:52 3758

  iter  continuity  x-velocity  y-velocity     time/iter
   243  6.4792e-04  5.1337e-08  5.1082e-08  1:05:12 3757
   244  6.5381e-04  5.0794e-08  5.0739e-08  1:04:40 3756
   245  6.5011e-04  5.0577e-08  5.0419e-08  0:51:43 3755
   246  6.5679e-04  5.0187e-08  5.0023e-08  0:53:53 3754
   247  6.4970e-04  5.0005e-08  4.9714e-08  0:55:36 3753
   248  6.4595e-04  4.9453e-08  4.9363e-08  0:56:59 3752
   249  6.5552e-04  4.8965e-08  4.8954e-08  0:45:34 3751
   250  6.4288e-04  4.8714e-08  4.8565e-08  0:48:57 3750
   251  6.4233e-04  4.8664e-08  4.8199e-08  0:51:39 3749
   252  6.4749e-04  4.8521e-08  4.7837e-08  0:53:48 3748
   253  6.4443e-04  4.8692e-08  4.7504e-08  0:43:02 3747

  iter  continuity  x-velocity  y-velocity     time/iter
   254  6.5076e-04  4.8698e-08  4.7267e-08  0:46:54 3746
   255  6.4455e-04  4.8923e-08  4.7007e-08  0:50:00 3745
   256  6.5526e-04  4.9307e-08  4.6748e-08  0:52:28 3744
   257  6.4693e-04  4.9372e-08  4.6516e-08  0:54:26 3743
   258  6.4888e-04  4.9561e-08  4.6298e-08  0:43:32 3742
   259  6.5015e-04  4.9598e-08  4.6014e-08  0:47:17 3741
   260  6.5760e-04  4.9860e-08  4.5759e-08  0:50:17 3740
   261  6.6038e-04  4.9917e-08  4.5527e-08  0:52:41 3739
   262  6.5348e-04  5.0172e-08  4.5261e-08  0:42:08 3738
   263  6.4642e-04  5.0467e-08  4.4941e-08  0:46:09 3737
   264  6.4723e-04  5.0564e-08  4.4701e-08  0:49:22 3736

  iter  continuity  x-velocity  y-velocity     time/iter
   265  6.4415e-04  5.0331e-08  4.4487e-08  0:39:29 3735
   266  6.4877e-04  4.9904e-08  4.4139e-08  0:44:02 3734
   267  6.4835e-04  4.9578e-08  4.3835e-08  0:47:39 3733
   268  6.4092e-04  4.9439e-08  4.3497e-08  0:50:33 3732
   269  6.3399e-04  4.9214e-08  4.3146e-08  0:52:52 3731
   270  6.2889e-04  4.8945e-08  4.2783e-08  1:07:09 3730
   271  6.3948e-04  4.8307e-08  4.2449e-08  1:06:08 3729
   272  6.2957e-04  4.8186e-08  4.2211e-08  1:05:19 3728
   273  6.3141e-04  4.8012e-08  4.1895e-08  1:17:05 3727
   274  6.3152e-04  4.7872e-08  4.1622e-08  1:14:05 3726
   275  6.4144e-04  4.7478e-08  4.1324e-08  1:11:40 3725

  iter  continuity  x-velocity  y-velocity     time/iter
   276  6.2739e-04  4.7395e-08  4.1113e-08  1:22:08 3724
   277  6.2742e-04  4.7782e-08  4.0871e-08  1:18:06 3723
   278  6.2816e-04  4.7906e-08  4.0610e-08  1:14:52 3722
   279  6.4139e-04  4.8065e-08  4.0358e-08  1:24:41 3721
   280  6.3614e-04  4.8144e-08  4.0205e-08  1:20:08 3720
   281  6.4209e-04  4.8164e-08  4.0024e-08  1:16:29 3719
   282  6.4032e-04  4.8324e-08  3.9833e-08  1:25:58 3718
   283  6.3554e-04  4.8643e-08  3.9650e-08  1:21:08 3717
   284  6.3060e-04  4.9110e-08  3.9468e-08  1:17:17 3716
   285  6.2638e-04  4.8956e-08  3.9160e-08  1:26:34 3715
   286  6.3003e-04  4.9045e-08  3.8940e-08  1:21:37 3714

  iter  continuity  x-velocity  y-velocity     time/iter
   287  6.3019e-04  4.8528e-08  3.8755e-08  1:17:39 3713
   288  6.3002e-04  4.8360e-08  3.8512e-08  1:26:51 3712
   289  6.3287e-04  4.7995e-08  3.8279e-08  1:21:50 3711
   290  6.2051e-04  4.7684e-08  3.8055e-08  1:17:49 3710
   291  6.2499e-04  4.7239e-08  3.7812e-08  1:26:58 3709
   292  6.1801e-04  4.7049e-08  3.7499e-08  1:21:55 3708
   293  6.1434e-04  4.6948e-08  3.7190e-08  1:17:52 3707
   294  6.2351e-04  4.6522e-08  3.6884e-08  1:26:59 3706
   295  6.2479e-04  4.6274e-08  3.6624e-08  1:21:55 3705
   296  6.1530e-04  4.6403e-08  3.6435e-08  1:17:52 3704
   297  6.1701e-04  4.6572e-08  3.6184e-08  1:26:58 3703

  iter  continuity  x-velocity  y-velocity     time/iter
   298  6.1771e-04  4.6937e-08  3.6044e-08  1:21:53 3702
   299  6.2435e-04  4.7020e-08  3.5868e-08  1:17:50 3701
   300  6.2245e-04  4.7058e-08  3.5751e-08  1:26:55 3700
   301  6.2490e-04  4.7164e-08  3.5546e-08  1:21:51 3699
   302  6.2891e-04  4.7564e-08  3.5399e-08  1:17:47 3698
   303  6.2794e-04  4.7910e-08  3.5205e-08  1:26:51 3697
   304  6.2298e-04  4.8170e-08  3.5076e-08  1:21:47 3696
   305  6.1370e-04  4.8515e-08  3.4941e-08  1:30:03 3695
   306  6.2020e-04  4.8477e-08  3.4703e-08  1:24:20 3694
   307  6.2436e-04  4.8462e-08  3.4471e-08  1:19:45 3693
   308  6.2885e-04  4.8423e-08  3.4317e-08  1:28:24 3692

  iter  continuity  x-velocity  y-velocity     time/iter
   309  6.1851e-04  4.8317e-08  3.4251e-08  1:23:00 3691
   310  6.1956e-04  4.7620e-08  3.3999e-08  1:30:59 3690
   311  6.2321e-04  4.7189e-08  3.3735e-08  1:25:04 3689
   312  6.1916e-04  4.6686e-08  3.3481e-08  1:20:20 3688
   313  6.0795e-04  4.6545e-08  3.3270e-08  1:28:49 3687
   314  6.0964e-04  4.6524e-08  3.2977e-08  1:23:20 3686
   315  6.1908e-04  4.6141e-08  3.2714e-08  1:18:56 3685
   316  6.1746e-04  4.5821e-08  3.2500e-08  1:27:41 3684
   317  6.0448e-04  4.5710e-08  3.2385e-08  1:22:24 3683
   318  6.0270e-04  4.5482e-08  3.2158e-08  1:18:11 3682
   319  6.0642e-04  4.5556e-08  3.1883e-08  1:27:04 3681

  iter  continuity  x-velocity  y-velocity     time/iter
   320  6.1157e-04  4.5772e-08  3.1741e-08  1:21:54 3680
   321  6.1598e-04  4.5990e-08  3.1574e-08  1:17:46 3679
   322  6.1107e-04  4.6123e-08  3.1463e-08  1:26:43 3678
   323  6.1352e-04  4.6391e-08  3.1309e-08  1:21:37 3677
   324  6.1089e-04  4.6495e-08  3.1213e-08  1:17:31 3676
   325  6.1106e-04  4.6595e-08  3.1080e-08  1:26:30 3675
   326  6.1610e-04  4.6516e-08  3.0929e-08  1:21:26 3674
   327  6.1342e-04  4.6478e-08  3.0804e-08  1:29:37 3673
   328  6.1247e-04  4.6970e-08  3.0632e-08  1:23:55 3672
   329  6.1370e-04  4.7052e-08  3.0466e-08  1:19:21 3671
   330  6.1775e-04  4.6978e-08  3.0320e-08  1:27:56 3670

  iter  continuity  x-velocity  y-velocity     time/iter
   331  6.1329e-04  4.6923e-08  3.0160e-08  1:22:33 3669
   332  6.0540e-04  4.6646e-08  3.0057e-08  1:18:15 3668
   333  6.0111e-04  4.6115e-08  2.9849e-08  1:27:02 3667
   334  6.0053e-04  4.5661e-08  2.9635e-08  1:21:50 3666
   335  5.9689e-04  4.5469e-08  2.9417e-08  1:17:40 3665
   336  5.9611e-04  4.5121e-08  2.9218e-08  1:26:32 3664
   337  5.9571e-04  4.4926e-08  2.8935e-08  1:21:25 3663
   338  6.0074e-04  4.4869e-08  2.8741e-08  1:17:20 3662
   339  6.0095e-04  4.4732e-08  2.8551e-08  1:26:15 3661
   340  5.9373e-04  4.4756e-08  2.8452e-08  1:21:11 3660
   341  5.9481e-04  4.4911e-08  2.8316e-08  1:17:07 3659

  iter  continuity  x-velocity  y-velocity     time/iter
   342  6.1364e-04  4.4942e-08  2.8190e-08  1:26:04 3658
   343  6.1235e-04  4.5092e-08  2.8136e-08  1:21:02 3657
   344  5.9873e-04  4.5427e-08  2.8068e-08  1:29:11 3656
   345  6.0550e-04  4.5573e-08  2.7957e-08  1:23:30 3655
   346  6.0242e-04  4.5985e-08  2.7823e-08  1:18:58 3654
   347  6.0339e-04  4.6429e-08  2.7718e-08  1:27:31 3653
   348  6.0661e-04  4.6751e-08  2.7616e-08  1:22:10 3652
   349  6.0327e-04  4.6814e-08  2.7484e-08  1:17:53 3651
   350  6.1399e-04  4.6853e-08  2.7326e-08  1:26:37 3650
   351  6.0535e-04  4.7046e-08  2.7262e-08  1:21:26 3649
   352  6.1013e-04  4.6792e-08  2.7184e-08  1:17:18 3648

  iter  continuity  x-velocity  y-velocity     time/iter
   353  6.0923e-04  4.6249e-08  2.7080e-08  1:26:08 3647
   354  6.0765e-04  4.5990e-08  2.6859e-08  1:21:02 3646
   355  6.0090e-04  4.5961e-08  2.6623e-08  1:16:58 3645
   356  5.8839e-04  4.5737e-08  2.6408e-08  1:25:51 3644
   357  5.9704e-04  4.4963e-08  2.6160e-08  1:20:48 3643
   358  5.8850e-04  4.4646e-08  2.5970e-08  1:28:54 3642
   359  5.9125e-04  4.4251e-08  2.5811e-08  1:23:14 3641
   360  5.7918e-04  4.4313e-08  2.5660e-08  1:18:42 3640
   361  5.8444e-04  4.4265e-08  2.5473e-08  1:27:13 3639
   362  5.8722e-04  4.4381e-08  2.5320e-08  1:21:52 3638
   363  5.8127e-04  4.4456e-08  2.5182e-08  1:17:36 3637

  iter  continuity  x-velocity  y-velocity     time/iter
   364  5.8929e-04  4.4562e-08  2.5041e-08  1:26:18 3636
   365  5.8631e-04  4.4746e-08  2.5020e-08  1:21:09 3635
   366  5.8927e-04  4.4972e-08  2.4893e-08  1:29:07 3634
   367  5.8566e-04  4.4980e-08  2.4823e-08  1:23:23 3633
   368  6.1703e-04  4.4865e-08  2.4777e-08  1:18:48 3632
   369  5.9575e-04  4.4970e-08  2.4725e-08  1:27:14 3631
   370  5.9704e-04  4.5339e-08  2.4672e-08  1:21:52 3630
   371  5.9387e-04  4.5537e-08  2.4570e-08  1:17:34 3629
   372  5.9894e-04  4.5703e-08  2.4457e-08  1:26:14 3628
   373  5.9081e-04  4.5664e-08  2.4379e-08  1:21:03 3627
   374  5.9212e-04  4.5769e-08  2.4197e-08  1:16:55 3626

  iter  continuity  x-velocity  y-velocity     time/iter
   375  5.8805e-04  4.5677e-08  2.4093e-08  1:25:41 3625
   376  5.9592e-04  4.5357e-08  2.3976e-08  1:20:36 3624
   377  5.8139e-04  4.5085e-08  2.3802e-08  1:16:32 3623
   378  5.8868e-04  4.4675e-08  2.3660e-08  1:25:22 3622
   379  5.8792e-04  4.4482e-08  2.3535e-08  1:20:20 3621
   380  5.8042e-04  4.4188e-08  2.3381e-08  1:16:19 3620
   381  5.8227e-04  4.4227e-08  2.3199e-08  1:25:10 3619
   382  5.8025e-04  4.3815e-08  2.2994e-08  1:20:11 3618
   383  5.7551e-04  4.3704e-08  2.2806e-08  1:28:14 3617
   384  5.9166e-04  4.3691e-08  2.2735e-08  1:22:37 3616
   385  5.8172e-04  4.3959e-08  2.2689e-08  1:18:08 3615

  iter  continuity  x-velocity  y-velocity     time/iter
   386  5.7922e-04  4.4270e-08  2.2609e-08  1:26:35 3614
   387  5.8192e-04  4.4561e-08  2.2540e-08  1:21:17 3613
   388  5.8466e-04  4.4742e-08  2.2459e-08  1:17:03 3612
   389  5.8588e-04  4.4872e-08  2.2440e-08  1:25:42 3611
   390  5.8899e-04  4.4922e-08  2.2372e-08  1:20:34 3610
   391  5.9044e-04  4.5283e-08  2.2335e-08  1:16:28 3609
   392  5.9106e-04  4.5380e-08  2.2225e-08  1:25:13 3608
   393  6.0089e-04  4.5621e-08  2.2181e-08  1:20:10 3607
   394  5.9371e-04  4.5683e-08  2.2076e-08  1:16:09 3606
   395  5.8957e-04  4.6012e-08  2.2002e-08  1:24:56 3605
   396  5.8936e-04  4.5656e-08  2.1994e-08  1:19:56 3604

  iter  continuity  x-velocity  y-velocity     time/iter
   397  5.8388e-04  4.5048e-08  2.1814e-08  1:15:57 3603
   398  5.8619e-04  4.4614e-08  2.1661e-08  1:24:45 3602
   399  5.7687e-04  4.4416e-08  2.1482e-08  1:19:47 3601
   400  5.8440e-04  4.4203e-08  2.1281e-08  1:27:49 3600
   401  5.8213e-04  4.3866e-08  2.1140e-08  1:22:14 3599
   402  5.7096e-04  4.3670e-08  2.1025e-08  1:17:45 3598
   403  5.6624e-04  4.3782e-08  2.0885e-08  1:26:10 3597
   404  5.6977e-04  4.3494e-08  2.0728e-08  1:20:54 3596
   405  5.6904e-04  4.3256e-08  2.0567e-08  1:16:41 3595
   406  5.7035e-04  4.3346e-08  2.0465e-08  1:25:18 3594
   407  5.7502e-04  4.3318e-08  2.0412e-08  1:20:11 3593

  iter  continuity  x-velocity  y-velocity     time/iter
   408  5.8397e-04  4.3254e-08  2.0324e-08  1:16:07 3592
   409  5.6973e-04  4.3312e-08  2.0286e-08  1:24:49 3591
   410  5.8933e-04  4.3298e-08  2.0238e-08  1:19:48 3590
   411  5.7631e-04  4.3664e-08  2.0216e-08  1:15:47 3589
   412  5.8443e-04  4.3863e-08  2.0179e-08  1:24:32 3588
   413  5.8545e-04  4.4156e-08  2.0116e-08  1:19:34 3587
   414  5.8596e-04  4.4410e-08  2.0063e-08  1:15:35 3586
   415  5.8249e-04  4.4750e-08  2.0044e-08  1:24:21 3585
   416  5.8045e-04  4.4795e-08  1.9982e-08  1:19:24 3584
   417  5.7587e-04  4.4683e-08  1.9882e-08  1:27:24 3583
   418  5.8007e-04  4.4817e-08  1.9754e-08  1:21:50 3582

  iter  continuity  x-velocity  y-velocity     time/iter
   419  5.7085e-04  4.4570e-08  1.9665e-08  1:17:23 3581
   420  5.7353e-04  4.4407e-08  1.9578e-08  1:25:46 3580
   421  5.8465e-04  4.3754e-08  1.9452e-08  1:20:31 3579
   422  5.6976e-04  4.3638e-08  1.9352e-08  1:16:19 3578
   423  5.6704e-04  4.3164e-08  1.9266e-08  1:24:53 3577
   424  5.6544e-04  4.3153e-08  1.9041e-08  1:19:49 3576
   425  5.7318e-04  4.3257e-08  1.8831e-08  1:15:45 3575
   426  5.8170e-04  4.2808e-08  1.8738e-08  1:24:24 3574
   427  5.7926e-04  4.2869e-08  1.8727e-08  1:19:25 3573
   428  5.8177e-04  4.2866e-08  1.8690e-08  1:15:25 3572
   429  5.7675e-04  4.3102e-08  1.8642e-08  1:24:08 3571

  iter  continuity  x-velocity  y-velocity     time/iter
   430  5.7375e-04  4.3465e-08  1.8571e-08  1:19:11 3570
   431  5.7244e-04  4.3887e-08  1.8547e-08  1:15:14 3569
   432  5.6748e-04  4.4252e-08  1.8526e-08  1:23:57 3568
   433  5.7925e-04  4.4262e-08  1.8424e-08  1:19:02 3567
   434  5.7386e-04  4.4602e-08  1.8426e-08  1:26:59 3566
   435  5.8059e-04  4.4575e-08  1.8345e-08  1:21:27 3565
   436  5.7308e-04  4.4826e-08  1.8326e-08  1:17:01 3564
   437  5.7891e-04  4.4870e-08  1.8277e-08  1:25:21 3563
   438  5.6883e-04  4.4981e-08  1.8199e-08  1:20:08 3562
   439  5.6724e-04  4.4769e-08  1.8143e-08  1:15:58 3561
   440  5.7318e-04  4.4432e-08  1.8060e-08  1:24:29 3560

  iter  continuity  x-velocity  y-velocity     time/iter
   441  5.7017e-04  4.4196e-08  1.7976e-08  1:19:26 3559
   442  5.5923e-04  4.3830e-08  1.7822e-08  1:15:23 3558
   443  5.5987e-04  4.3526e-08  1.7654e-08  1:24:00 3557
   444  5.5922e-04  4.3117e-08  1.7566e-08  1:19:02 3556
   445  5.5252e-04  4.2811e-08  1.7403e-08  1:15:04 3555
   446  5.5610e-04  4.2607e-08  1.7297e-08  1:11:53 3554
   447  5.4325e-04  4.1997e-08  1.7518e-08  1:21:11 3553
   448  5.5566e-04  4.2054e-08  1.7142e-08  1:16:46 3552
   449  5.5697e-04  4.2281e-08  1.6951e-08  1:25:04 3551
   450  5.6628e-04  4.2201e-08  1.6851e-08  1:19:52 3550
   451  5.5759e-04  4.2529e-08  1.6860e-08  1:15:42 3549

  iter  continuity  x-velocity  y-velocity     time/iter
   452  5.5082e-04  4.2557e-08  1.7154e-08  1:24:12 3548
   453  5.6092e-04  4.2838e-08  1.6815e-08  1:19:10 3547
   454  5.7365e-04  4.2967e-08  1.6740e-08  1:15:08 3546
   455  5.7303e-04  4.3264e-08  1.6708e-08  1:11:54 3545
   456  5.7456e-04  4.3577e-08  1.6767e-08  1:09:19 3544
   457  5.7904e-04  4.3528e-08  1.6748e-08  1:07:15 3543
   458  5.7508e-04  4.3662e-08  1.6753e-08  1:05:36 3542
   459  5.9431e-04  4.3662e-08  1.6746e-08  0:52:28 3541
   460  5.7754e-04  4.4031e-08  1.6733e-08  0:53:45 3540
   461  5.6528e-04  4.4131e-08  1.6709e-08  0:54:47 3539
   462  5.6332e-04  4.4177e-08  1.6577e-08  0:43:49 3538

  iter  continuity  x-velocity  y-velocity     time/iter
   463  5.5539e-04  4.4178e-08  1.6437e-08  0:46:50 3537
   464  5.6750e-04  4.3550e-08  1.6269e-08  0:49:15 3536
   465  5.6550e-04  4.3266e-08  1.6237e-08  0:51:10 3535
   466  5.6270e-04  4.2892e-08  1.6208e-08  0:40:55 3534
   467  5.6087e-04  4.2850e-08  1.6051e-08  0:44:30 3533
   468  5.6204e-04  4.2381e-08  1.5927e-08  0:59:08 3532
   469  5.6329e-04  4.2137e-08  1.5797e-08  0:59:04 3531
   470  5.5808e-04  4.2404e-08  1.5741e-08  0:59:01 3530
   471  5.5451e-04  4.2677e-08  1.5656e-08  1:10:43 3529
   472  5.5847e-04  4.2770e-08  1.5606e-08  1:08:19 3528
   473  5.5904e-04  4.2922e-08  1.5587e-08  1:06:24 3527

  iter  continuity  x-velocity  y-velocity     time/iter
   474  5.5560e-04  4.3251e-08  1.5565e-08  1:16:37 3526
   475  5.5949e-04  4.3631e-08  1.5565e-08  1:13:01 3525
   476  5.7067e-04  4.3593e-08  1.5535e-08  1:21:54 3524
   477  5.7448e-04  4.3595e-08  1.5568e-08  1:17:14 3523
   478  5.6894e-04  4.3863e-08  1.5607e-08  1:13:31 3522
   479  5.7026e-04  4.4062e-08  1.5563e-08  1:10:32 3521
   480  5.6895e-04  4.4537e-08  1.5519e-08  1:08:09 3520
   481  5.6883e-04  4.4800e-08  1.5467e-08  1:06:14 3519
   482  5.6283e-04  4.4914e-08  1.5408e-08  1:04:42 3518
   483  5.7073e-04  4.4544e-08  1.5418e-08  0:51:44 3517
   484  5.6655e-04  4.4022e-08  1.5324e-08  0:53:06 3516

  iter  continuity  x-velocity  y-velocity     time/iter
   485  5.6226e-04  4.3552e-08  1.5214e-08  0:54:11 3515
   486  5.6878e-04  4.3081e-08  1.5101e-08  0:55:03 3514
   487  5.5274e-04  4.2765e-08  1.4952e-08  0:44:02 3513
   488  5.5045e-04  4.2341e-08  1.4816e-08  0:46:55 3512
   489  5.4687e-04  4.2333e-08  1.4695e-08  0:49:14 3511
   490  5.4516e-04  4.2267e-08  1.4559e-08  0:51:04 3510
   491  5.5731e-04  4.2059e-08  1.4493e-08  0:40:51 3509
   492  5.5052e-04  4.1961e-08  1.4433e-08  0:44:22 3508
   493  5.5079e-04  4.2077e-08  1.4394e-08  0:47:10 3507
   494  5.4749e-04  4.2272e-08  1.4348e-08  0:37:43 3506
   495  5.4655e-04  4.2426e-08  1.4308e-08  0:41:51 3505

  iter  continuity  x-velocity  y-velocity     time/iter
   496  5.6787e-04  4.2496e-08  1.4246e-08  0:45:09 3504
   497  5.5996e-04  4.2510e-08  1.4332e-08  0:47:47 3503
   498  5.5036e-04  4.2718e-08  1.4339e-08  0:49:54 3502
   499  5.5595e-04  4.3036e-08  1.4324e-08  0:39:54 3501
   500  5.5712e-04  4.3126e-08  1.4257e-08  0:43:35 3500
   501  5.5642e-04  4.3293e-08  1.4195e-08  0:46:31 3499
   502  5.6149e-04  4.3037e-08  1.4124e-08  0:48:52 3498
   503  5.6073e-04  4.3179e-08  1.4186e-08  0:39:05 3497
   504  5.5312e-04  4.3076e-08  1.4147e-08  0:42:54 3496
   505  5.4998e-04  4.3113e-08  1.4079e-08  0:45:58 3495
   506  5.4617e-04  4.2957e-08  1.3993e-08  0:48:25 3494

  iter  continuity  x-velocity  y-velocity     time/iter
   507  5.5215e-04  4.2581e-08  1.3908e-08  0:38:43 3493
   508  5.5944e-04  4.1996e-08  1.3881e-08  0:42:36 3492
   509  5.4505e-04  4.1858e-08  1.3801e-08  0:45:43 3491
   510  5.3791e-04  4.1878e-08  1.3732e-08  0:36:33 3490
   511  5.4094e-04  4.1977e-08  1.3586e-08  0:40:52 3489
   512  5.4012e-04  4.2187e-08  1.3426e-08  0:44:19 3488
   513  5.4592e-04  4.2113e-08  1.3325e-08  0:47:04 3487
   514  5.5304e-04  4.2078e-08  1.3288e-08  0:37:38 3486
   515  5.4448e-04  4.2176e-08  1.3281e-08  0:41:43 3485
   516  5.4058e-04  4.2425e-08  1.3287e-08  0:44:59 3484
   517  5.4896e-04  4.2630e-08  1.3250e-08  0:47:35 3483

  iter  continuity  x-velocity  y-velocity     time/iter
   518  5.5401e-04  4.2663e-08  1.3321e-08  0:38:03 3482
   519  5.4801e-04  4.2916e-08  1.3334e-08  0:42:02 3481
   520  5.5725e-04  4.3062e-08  1.3331e-08  0:45:13 3480
   521  5.5051e-04  4.3376e-08  1.3341e-08  0:47:46 3479
   522  5.4737e-04  4.3729e-08  1.3246e-08  0:38:12 3478
   523  5.5987e-04  4.3632e-08  1.3192e-08  0:42:08 3477
   524  5.5686e-04  4.3804e-08  1.3233e-08  0:45:17 3476
   525  5.6015e-04  4.3830e-08  1.3217e-08  0:47:48 3475
   526  5.4839e-04  4.3999e-08  1.3246e-08  0:38:14 3474
   527  5.4512e-04  4.3585e-08  1.3165e-08  0:42:09 3473
   528  5.4557e-04  4.3016e-08  1.3062e-08  0:45:17 3472

  iter  continuity  x-velocity  y-velocity     time/iter
   529  5.3817e-04  4.2679e-08  1.2880e-08  0:47:47 3471
   530  5.4091e-04  4.2281e-08  1.2736e-08  0:38:13 3470
   531  5.3719e-04  4.1910e-08  1.2697e-08  0:42:08 3469
   532  5.3786e-04  4.1749e-08  1.2590e-08  0:45:15 3468
   533  5.3301e-04  4.1445e-08  1.2537e-08  0:36:12 3467
   534  5.5602e-04  4.1086e-08  1.2472e-08  0:40:30 3466
   535  5.4165e-04  4.0863e-08  1.2481e-08  0:43:56 3465
   536  5.3776e-04  4.0874e-08  1.2392e-08  0:46:41 3464
   537  5.3867e-04  4.1226e-08  1.2350e-08  0:37:20 3463
   538  5.4211e-04  4.1275e-08  1.2320e-08  0:41:24 3462
   539  5.3658e-04  4.1672e-08  1.2236e-08  0:44:39 3461

  iter  continuity  x-velocity  y-velocity     time/iter
   540  5.3536e-04  4.1975e-08  1.2201e-08  0:47:15 3460
   541  5.2302e-04  4.2323e-08  1.2175e-08  0:37:47 3459
   542  5.2976e-04  4.2528e-08  1.2111e-08  0:41:45 3458
   543  5.4717e-04  4.2244e-08  1.2125e-08  0:44:55 3457
   544  5.5399e-04  4.2468e-08  1.2219e-08  0:47:26 3456
   545  5.4805e-04  4.2694e-08  1.2315e-08  0:49:27 3455
   546  5.5378e-04  4.2804e-08  1.2301e-08  0:39:33 3454
   547  5.4033e-04  4.2910e-08  1.2281e-08  0:43:09 3453
   548  5.3547e-04  4.2785e-08  1.2210e-08  0:46:01 3452
   549  5.3277e-04  4.2664e-08  1.2087e-08  0:48:18 3451
   550  5.5502e-04  4.2096e-08  1.2037e-08  0:38:38 3450

  iter  continuity  x-velocity  y-velocity     time/iter
   551  5.4267e-04  4.1975e-08  1.2003e-08  0:42:24 3449
   552  5.3372e-04  4.1958e-08  1.1932e-08  0:45:24 3448
   553  5.3548e-04  4.1862e-08  1.1874e-08  0:36:18 3447
   554  5.3043e-04  4.1681e-08  1.1777e-08  0:40:31 3446
   555  5.3334e-04  4.1690e-08  1.1600e-08  0:43:54 3445
   556  5.4565e-04  4.1203e-08  1.1525e-08  0:46:35 3444
   557  5.3325e-04  4.1275e-08  1.1468e-08  0:37:15 3443
   558  5.3799e-04  4.1496e-08  1.1506e-08  0:41:16 3442
   559  5.4441e-04  4.1661e-08  1.1539e-08  0:44:29 3441
   560  5.4291e-04  4.2079e-08  1.1539e-08  0:47:02 3440
   561  5.5023e-04  4.1932e-08  1.1541e-08  0:37:37 3439

  iter  continuity  x-velocity  y-velocity     time/iter
   562  5.4289e-04  4.2082e-08  1.1585e-08  0:41:33 3438
   563  5.4182e-04  4.2312e-08  1.1591e-08  0:44:41 3437
   564  5.3647e-04  4.2676e-08  1.1589e-08  0:47:11 3436
   565  5.4202e-04  4.3041e-08  1.1522e-08  0:37:44 3435
   566  5.4027e-04  4.3439e-08  1.1496e-08  0:41:38 3434
   567  5.4868e-04  4.3498e-08  1.1470e-08  0:44:44 3433
   568  5.3880e-04  4.3556e-08  1.1479e-08  0:47:13 3432
   569  5.3884e-04  4.3576e-08  1.1530e-08  0:37:46 3431
   570  5.4098e-04  4.3137e-08  1.1494e-08  0:41:38 3430
   571  5.4631e-04  4.2442e-08  1.1377e-08  0:44:44 3429
   572  5.3667e-04  4.2261e-08  1.1332e-08  0:35:46 3428

  iter  continuity  x-velocity  y-velocity     time/iter
   573  5.3677e-04  4.2058e-08  1.1252e-08  0:40:02 3427
   574  5.3598e-04  4.1634e-08  1.1127e-08  0:43:26 3426
   575  5.3048e-04  4.1482e-08  1.1067e-08  0:46:09 3425
   576  5.2936e-04  4.1365e-08  1.1000e-08  0:36:55 3424
   577  5.3243e-04  4.1143e-08  1.0900e-08  0:40:56 3423
   578  5.3234e-04  4.0933e-08  1.0868e-08  0:44:09 3422
   579  5.2787e-04  4.0652e-08  1.0877e-08  0:35:18 3421
   580  5.3126e-04  4.0869e-08  1.0823e-08  0:39:38 3420
   581  5.3199e-04  4.1138e-08  1.0779e-08  0:43:06 3419
   582  5.3204e-04  4.1298e-08  1.0780e-08  0:45:52 3418
   583  5.3290e-04  4.1434e-08  1.0800e-08  0:36:41 3417

  iter  continuity  x-velocity  y-velocity     time/iter
   584  5.4346e-04  4.1395e-08  1.0827e-08  0:40:43 3416
   585  5.3351e-04  4.1723e-08  1.0860e-08  0:43:57 3415
   586  5.3616e-04  4.1870e-08  1.0857e-08  0:46:32 3414
   587  5.3303e-04  4.2098e-08  1.0860e-08  0:37:13 3413
   588  5.4877e-04  4.2228e-08  1.0864e-08  0:41:08 3412
   589  5.4144e-04  4.2639e-08  1.0867e-08  0:44:16 3411
   590  5.4388e-04  4.2835e-08  1.0867e-08  0:35:24 3410
   591  5.3258e-04  4.2880e-08  1.0843e-08  0:39:41 3409
   592  5.3249e-04  4.2757e-08  1.0776e-08  0:43:06 3408
   593  5.3049e-04  4.2464e-08  1.0733e-08  0:45:49 3407
   594  5.2838e-04  4.2345e-08  1.0692e-08  0:48:00 3406

  iter  continuity  x-velocity  y-velocity     time/iter
   595  5.2330e-04  4.2153e-08  1.0632e-08  0:38:23 3405
   596  5.2352e-04  4.2066e-08  1.0511e-08  0:42:03 3404
   597  5.4200e-04  4.1361e-08  1.0445e-08  0:44:58 3403
   598  5.3682e-04  4.1164e-08  1.0350e-08  0:47:18 3402
   599  5.3483e-04  4.1133e-08  1.0288e-08  0:37:50 3401
   600  5.2668e-04  4.1098e-08  1.0203e-08  0:41:36 3400
   601  5.4037e-04  4.1138e-08  1.0149e-08  0:44:36 3399
   602  5.4425e-04  4.0937e-08  1.0249e-08  0:46:59 3398
   603  5.3302e-04  4.1417e-08  1.0223e-08  0:37:35 3397
   604  5.3801e-04  4.1736e-08  1.0236e-08  0:41:23 3396
   605  5.3669e-04  4.1972e-08  1.0190e-08  0:44:24 3395

  iter  continuity  x-velocity  y-velocity     time/iter
   606  5.3873e-04  4.2030e-08  1.0192e-08  0:46:50 3394
   607  5.4326e-04  4.2401e-08  1.0171e-08  0:37:27 3393
   608  5.4085e-04  4.2477e-08  1.0258e-08  0:41:16 3392
   609  5.3605e-04  4.2754e-08  1.0238e-08  0:44:18 3391
   610  5.4041e-04  4.3062e-08  1.0179e-08  0:35:26 3390
   611  5.3966e-04  4.3336e-08  1.0221e-08  0:39:38 3389
   612  5.2881e-04  4.3658e-08  1.0169e-08  0:42:59 3388
   613  5.3937e-04  4.3333e-08  1.0149e-08  0:45:40 3387
   614  5.3858e-04  4.2797e-08  1.0155e-08  0:36:32 3386
   615  5.4385e-04  4.2283e-08  1.0085e-08  0:40:30 3385
   616  5.4272e-04  4.1797e-08  1.0009e-08  0:43:40 3384

  iter  continuity  x-velocity  y-velocity     time/iter
   617  5.2833e-04  4.1593e-08  9.8935e-09  0:46:12 3383
   618  5.2515e-04  4.1333e-08  9.8064e-09  0:36:57 3382
   619  5.2331e-04  4.1332e-08  9.6994e-09  0:40:49 3381
   620  5.2401e-04  4.0808e-08  9.6406e-09  0:43:55 3380
   621  5.3051e-04  4.0541e-08  9.6028e-09  0:46:23 3379
   622  5.2610e-04  4.0370e-08  9.5912e-09  0:37:06 3378
   623  5.3062e-04  4.0407e-08  9.5062e-09  0:40:55 3377
   624  5.2826e-04  4.0544e-08  9.5562e-09  0:43:59 3376
   625  5.3727e-04  4.0561e-08  9.5763e-09  0:57:41 3375
   626  5.2947e-04  4.1050e-08  9.4792e-09  0:57:22 3374
   627  5.2828e-04  4.1445e-08  9.5074e-09  0:57:08 3373

  iter  continuity  x-velocity  y-velocity     time/iter
   628  5.2594e-04  4.1849e-08  9.5250e-09  1:08:10 3372
   629  5.2895e-04  4.1662e-08  9.5299e-09  1:05:45 3371
   630  5.3120e-04  4.1618e-08  9.5288e-09  1:03:49 3370
   631  5.3117e-04  4.1738e-08  9.5558e-09  1:13:30 3369
   632  5.2785e-04  4.1942e-08  9.5668e-09  1:10:01 3368
   633  5.2952e-04  4.2206e-08  9.5660e-09  1:07:13 3367
   634  5.3614e-04  4.2242e-08  9.5819e-09  1:16:12 3366
   635  5.3778e-04  4.2151e-08  9.5463e-09  1:12:09 3365
   636  5.4149e-04  4.2281e-08  9.5191e-09  1:08:55 3364
   637  5.3524e-04  4.1984e-08  9.5588e-09  1:17:32 3363
   638  5.2322e-04  4.1740e-08  9.4715e-09  1:13:13 3362

  iter  continuity  x-velocity  y-velocity     time/iter
   639  5.4561e-04  4.1590e-08  9.4305e-09  1:09:46 3361
   640  5.2997e-04  4.1431e-08  9.3922e-09  1:18:12 3360
   641  5.3491e-04  4.0896e-08  9.2665e-09  1:24:56 3359
   642  5.1704e-04  4.1040e-08  9.1042e-09  1:19:07 3358
   643  5.3074e-04  4.0821e-08  9.0275e-09  1:14:28 3357
   644  5.2426e-04  4.0988e-08  9.0092e-09  1:21:56 3356
   645  5.2305e-04  4.1120e-08  8.9913e-09  1:16:42 3355
   646  5.2725e-04  4.1216e-08  9.0415e-09  1:12:32 3354
   647  5.3304e-04  4.1407e-08  9.0316e-09  1:20:21 3353
   648  5.4008e-04  4.1696e-08  9.0864e-09  1:15:26 3352
   649  5.3400e-04  4.2091e-08  9.1468e-09  1:11:30 3351

  iter  continuity  x-velocity  y-velocity     time/iter
   650  5.2412e-04  4.2272e-08  9.1582e-09  1:19:31 3350
   651  5.2879e-04  4.2813e-08  9.0846e-09  1:14:46 3349
   652  5.2458e-04  4.3116e-08  9.0994e-09  1:10:57 3348
   653  5.3459e-04  4.2964e-08  9.0778e-09  1:19:03 3347
   654  5.4399e-04  4.3085e-08  9.1523e-09  1:14:23 3346
   655  5.4802e-04  4.2801e-08  9.1833e-09  1:10:38 3345
   656  5.3704e-04  4.2576e-08  9.2329e-09  1:18:47 3344
   657  5.3162e-04  4.2336e-08  9.2095e-09  1:14:09 3343
   658  5.2357e-04  4.1896e-08  9.1270e-09  1:10:27 3342
   659  5.2054e-04  4.1818e-08  8.9571e-09  1:18:37 3341
   660  5.2024e-04  4.1397e-08  8.8495e-09  1:14:00 3340

  iter  continuity  x-velocity  y-velocity     time/iter
   661  5.1779e-04  4.1062e-08  8.7636e-09  1:21:27 3339
   662  5.1195e-04  4.0759e-08  8.6728e-09  1:16:16 3338
   663  5.0354e-04  4.0610e-08  8.5958e-09  1:12:07 3337
   664  5.0407e-04  4.0283e-08  8.5158e-09  1:19:55 3336
   665  5.1341e-04  4.0101e-08  8.4671e-09  1:15:02 3335
   666  5.1240e-04  4.0093e-08  8.4862e-09  1:11:07 3334
   667  5.1071e-04  4.0332e-08  8.4570e-09  1:19:06 3333
   668  5.1843e-04  4.0129e-08  8.4099e-09  1:14:22 3332
   669  5.1554e-04  4.0423e-08  8.4126e-09  1:10:35 3331
   670  5.2341e-04  4.0741e-08  8.4745e-09  1:07:33 3330
   671  5.2470e-04  4.0750e-08  8.5253e-09  0:54:01 3329

  iter  continuity  x-velocity  y-velocity     time/iter
   672  5.4333e-04  4.0735e-08  8.5479e-09  0:54:18 3328
   673  5.2767e-04  4.1161e-08  8.6837e-09  0:54:31 3327
   674  5.3144e-04  4.1372e-08  8.6599e-09  0:54:41 3326
   675  5.3122e-04  4.1708e-08  8.6868e-09  0:43:44 3325
   676  5.4179e-04  4.1907e-08  8.6692e-09  0:46:03 3324
   677  5.4236e-04  4.1573e-08  8.7232e-09  0:47:55 3323
   678  5.3352e-04  4.1680e-08  8.7082e-09  0:49:23 3322
   679  5.2122e-04  4.1670e-08  8.6681e-09  0:39:30 3321
   680  5.2517e-04  4.1701e-08  8.6144e-09  0:42:39 3320
   681  5.2414e-04  4.1413e-08  8.6222e-09  0:45:11 3319
   682  5.2203e-04  4.1527e-08  8.5760e-09  0:47:12 3318

  iter  continuity  x-velocity  y-velocity     time/iter
   683  5.1428e-04  4.1263e-08  8.4798e-09  0:59:51 3317
   684  5.1731e-04  4.1216e-08  8.3154e-09  0:58:55 3316
   685  5.1540e-04  4.1147e-08  8.1972e-09  0:58:10 3315
   686  5.1414e-04  4.0982e-08  8.1302e-09  1:08:37 3314
   687  5.1214e-04  4.0936e-08  8.0499e-09  1:05:55 3313
   688  5.1486e-04  4.0787e-08  8.1059e-09  1:14:48 3312
   689  5.4386e-04  4.0603e-08  8.1715e-09  1:10:52 3311
   690  5.2663e-04  4.1065e-08  8.2632e-09  1:07:42 3310
   691  5.1788e-04  4.1436e-08  8.3315e-09  1:16:12 3309
   692  5.2991e-04  4.1855e-08  8.3249e-09  1:11:58 3308
   693  5.2464e-04  4.2249e-08  8.3349e-09  1:08:35 3307

  iter  continuity  x-velocity  y-velocity     time/iter
   694  5.2843e-04  4.2364e-08  8.3136e-09  1:16:53 3306
   695  5.4710e-04  4.2174e-08  8.3590e-09  1:12:31 3305
   696  5.3458e-04  4.2472e-08  8.3367e-09  1:09:00 3304
   697  5.2867e-04  4.2714e-08  8.4324e-09  1:17:12 3303
   698  5.2537e-04  4.3010e-08  8.3596e-09  1:12:45 3302
   699  5.2353e-04  4.3143e-08  8.3784e-09  1:09:11 3301
   700  5.3852e-04  4.2225e-08  8.3852e-09  1:17:20 3300
   701  5.2177e-04  4.1797e-08  8.3112e-09  1:12:51 3299
   702  5.1276e-04  4.1635e-08  8.2020e-09  1:09:15 3298
   703  5.1053e-04  4.1151e-08  8.0683e-09  1:17:22 3297
   704  5.0966e-04  4.0785e-08  7.9340e-09  1:12:52 3296

  iter  continuity  x-velocity  y-velocity     time/iter
   705  5.0218e-04  4.0623e-08  7.8709e-09  1:09:15 3295
   706  5.0123e-04  4.0326e-08  7.8053e-09  1:17:21 3294
   707  5.0228e-04  4.0155e-08  7.7038e-09  1:12:50 3293
   708  5.0048e-04  3.9991e-08  7.7308e-09  1:09:13 3292
   709  5.0569e-04  4.0015e-08  7.6684e-09  1:17:18 3291
   710  5.1093e-04  4.0162e-08  7.7053e-09  1:12:47 3290
   711  5.0976e-04  4.0250e-08  7.6810e-09  1:09:11 3289
   712  5.0777e-04  4.0514e-08  7.6934e-09  1:17:15 3288
   713  5.2082e-04  4.0559e-08  7.7182e-09  1:12:44 3287
   714  5.1962e-04  4.0648e-08  7.7826e-09  1:20:05 3286
   715  5.1818e-04  4.0977e-08  7.8358e-09  1:14:59 3285

  iter  continuity  x-velocity  y-velocity     time/iter
   716  5.1563e-04  4.1290e-08  7.8526e-09  1:10:55 3284
   717  5.2518e-04  4.1209e-08  7.8810e-09  1:18:36 3283
   718  5.2362e-04  4.1411e-08  7.9211e-09  1:13:48 3282
   719  5.3627e-04  4.1392e-08  7.9792e-09  1:09:58 3281
   720  5.2483e-04  4.1360e-08  8.0006e-09  1:06:53 3280
   721  5.1219e-04  4.1654e-08  7.9680e-09  1:15:21 3279
   722  5.1149e-04  4.1758e-08  7.8914e-09  1:11:11 3278
   723  5.0993e-04  4.1763e-08  7.7861e-09  1:07:52 3277
   724  5.2160e-04  4.1225e-08  7.7259e-09  1:16:07 3276
   725  5.0997e-04  4.0905e-08  7.7682e-09  1:11:47 3275
   726  5.0811e-04  4.0876e-08  7.6839e-09  1:08:19 3274

  iter  continuity  x-velocity  y-velocity     time/iter
   727  5.0187e-04  4.0801e-08  7.6039e-09  1:16:28 3273
   728  4.9936e-04  4.0738e-08  7.5263e-09  1:12:04 3272
   729  5.0084e-04  4.0692e-08  7.4038e-09  1:08:32 3271
   730  5.1830e-04  4.0489e-08  7.3191e-09  1:16:37 3270
   731  5.0689e-04  4.0756e-08  7.3955e-09  1:12:10 3269
   732  5.0708e-04  4.1065e-08  7.4533e-09  1:19:30 3268
   733  5.0480e-04  4.1415e-08  7.5100e-09  1:14:28 3267
   734  5.1131e-04  4.1660e-08  7.4472e-09  1:10:27 3266
   735  5.1356e-04  4.1568e-08  7.4789e-09  1:18:06 3265
   736  5.1495e-04  4.1756e-08  7.5158e-09  1:13:21 3264
   737  5.4179e-04  4.1563e-08  7.6135e-09  1:09:32 3263

  iter  continuity  x-velocity  y-velocity     time/iter
   738  5.3000e-04  4.1952e-08  7.7033e-09  1:17:21 3262
   739  5.2855e-04  4.2112e-08  7.8027e-09  1:12:44 3261
   740  5.2631e-04  4.2615e-08  7.7536e-09  1:09:02 3260
   741  5.2646e-04  4.2526e-08  7.7306e-09  1:16:56 3259
   742  5.3164e-04  4.2596e-08  7.7284e-09  1:12:24 3258
   743  5.2765e-04  4.2424e-08  7.7963e-09  1:08:45 3257
   744  5.1366e-04  4.1844e-08  7.7394e-09  1:16:42 3256
   745  5.1437e-04  4.1483e-08  7.5770e-09  1:12:11 3255
   746  5.0868e-04  4.1188e-08  7.4874e-09  1:08:35 3254
   747  5.1127e-04  4.0948e-08  7.4030e-09  1:16:32 3253
   748  5.0847e-04  4.0917e-08  7.3362e-09  1:12:03 3252

  iter  continuity  x-velocity  y-velocity     time/iter
   749  5.0139e-04  4.0558e-08  7.2646e-09  1:08:27 3251
   750  5.0535e-04  4.0066e-08  7.2656e-09  1:16:25 3250
   751  4.9758e-04  3.9870e-08  7.1837e-09  1:11:57 3249
   752  5.0334e-04  3.9913e-08  7.1331e-09  1:08:22 3248
   753  5.0798e-04  4.0011e-08  7.1831e-09  1:16:19 3247
   754  5.1158e-04  3.9938e-08  7.1726e-09  1:11:51 3246
   755  5.0803e-04  4.0274e-08  7.2032e-09  1:08:17 3245
   756  5.0489e-04  4.0405e-08  7.1667e-09  1:16:14 3244
   757  5.1348e-04  4.0516e-08  7.1800e-09  1:11:47 3243
   758  5.1801e-04  4.0770e-08  7.2793e-09  1:08:13 3242
   759  5.1130e-04  4.1013e-08  7.2503e-09  1:16:10 3241

  iter  continuity  x-velocity  y-velocity     time/iter
   760  5.1181e-04  4.1353e-08  7.2928e-09  1:11:43 3240
   761  5.1303e-04  4.1648e-08  7.3013e-09  1:08:09 3239
   762  5.1310e-04  4.1952e-08  7.2998e-09  1:16:05 3238
   763  5.1229e-04  4.2067e-08  7.3380e-09  1:11:38 3237
   764  5.1378e-04  4.2037e-08  7.3694e-09  1:08:05 3236
   765  5.1148e-04  4.2180e-08  7.2912e-09  1:16:01 3235
   766  5.2209e-04  4.1703e-08  7.3549e-09  1:11:34 3234
   767  5.1618e-04  4.1429e-08  7.3492e-09  1:08:01 3233
   768  5.1084e-04  4.1083e-08  7.2903e-09  1:15:57 3232
   769  5.1993e-04  4.0970e-08  7.2794e-09  1:11:30 3231
   770  5.1387e-04  4.0771e-08  7.2806e-09  1:07:57 3230

  iter  continuity  x-velocity  y-velocity     time/iter
   771  5.2151e-04  4.0473e-08  7.1248e-09  1:15:52 3229
   772  5.3509e-04  3.9834e-08  7.1314e-09  1:11:26 3228
   773  5.1297e-04  3.9901e-08  7.0976e-09  1:07:53 3227
   774  5.0582e-04  4.0201e-08  7.0045e-09  1:15:48 3226
   775  5.1544e-04  4.0295e-08  6.9454e-09  1:11:22 3225
   776  5.0932e-04  4.0759e-08  6.9751e-09  1:07:50 3224
   777  5.0400e-04  4.1171e-08  6.9751e-09  1:15:44 3223
   778  5.1109e-04  4.1541e-08  6.9969e-09  1:11:18 3222
   779  5.1687e-04  4.1612e-08  7.0363e-09  1:07:46 3221
   780  5.1259e-04  4.1793e-08  7.1281e-09  1:15:40 3220
   781  5.1474e-04  4.2061e-08  7.0668e-09  1:11:14 3219

  iter  continuity  x-velocity  y-velocity     time/iter
   782  5.1771e-04  4.2303e-08  7.1271e-09  1:07:42 3218
   783  5.1584e-04  4.2586e-08  7.1239e-09  1:15:35 3217
   784  5.1792e-04  4.2467e-08  7.1457e-09  1:11:10 3216
   785  5.2606e-04  4.2373e-08  7.1480e-09  1:18:21 3215
   786  5.1033e-04  4.2381e-08  7.2683e-09  1:13:23 3214
   787  5.1387e-04  4.1972e-08  7.2479e-09  1:09:24 3213
   788  5.1242e-04  4.1534e-08  7.1431e-09  1:16:55 3212
   789  5.1125e-04  4.1281e-08  7.0643e-09  1:12:13 3211
   790  5.1612e-04  4.0965e-08  7.0228e-09  1:08:27 3210
   791  5.0483e-04  4.0694e-08  7.0038e-09  1:16:08 3209
   792  4.9951e-04  4.0461e-08  6.8866e-09  1:11:35 3208

  iter  continuity  x-velocity  y-velocity     time/iter
   793  5.0216e-04  4.0233e-08  6.8268e-09  1:07:56 3207
   794  5.0327e-04  3.9761e-08  6.8185e-09  1:15:43 3206
   795  4.9603e-04  3.9767e-08  6.7350e-09  1:11:14 3205
   796  5.0261e-04  3.9805e-08  6.7210e-09  1:07:39 3204
   797  4.9805e-04  3.9916e-08  6.7146e-09  1:15:27 3203
   798  5.0550e-04  4.0107e-08  6.6763e-09  1:11:01 3202
   799  5.0488e-04  4.0325e-08  6.6803e-09  1:07:28 3201
   800  5.0059e-04  4.0549e-08  6.7225e-09  1:15:17 3200
   801  5.0223e-04  4.0839e-08  6.7020e-09  1:10:53 3199
   802  5.0347e-04  4.1097e-08  6.7563e-09  1:07:21 3198
   803  5.0071e-04  4.1302e-08  6.7828e-09  1:15:10 3197

  iter  continuity  x-velocity  y-velocity     time/iter
   804  5.3037e-04  4.1087e-08  6.8069e-09  1:10:46 3196
   805  5.2097e-04  4.1232e-08  6.8985e-09  1:07:15 3195
   806  5.1506e-04  4.1595e-08  6.9931e-09  1:15:05 3194
   807  5.1181e-04  4.1620e-08  7.0132e-09  1:10:41 3193
   808  5.1804e-04  4.1648e-08  6.9280e-09  1:07:10 3192
   809  5.1939e-04  4.1585e-08  6.8857e-09  1:15:00 3191
   810  5.0438e-04  4.1373e-08  6.8747e-09  1:10:37 3190
   811  5.0863e-04  4.1140e-08  6.8832e-09  1:07:06 3189
   812  4.9836e-04  4.1045e-08  6.8325e-09  1:14:55 3188
   813  5.1401e-04  4.0338e-08  6.7736e-09  1:10:32 3187
   814  5.0730e-04  4.0244e-08  6.6887e-09  1:07:02 3186

  iter  continuity  x-velocity  y-velocity     time/iter
   815  5.1720e-04  3.9963e-08  6.5943e-09  1:14:51 3185
   816  5.1357e-04  3.9922e-08  6.6074e-09  1:10:28 3184
   817  5.1103e-04  3.9698e-08  6.5942e-09  1:06:58 3183
   818  5.0334e-04  4.0038e-08  6.5771e-09  1:14:46 3182
   819  5.0017e-04  4.0565e-08  6.5601e-09  1:10:24 3181
   820  5.0546e-04  4.1120e-08  6.5718e-09  1:06:54 3180
   821  5.2738e-04  4.0747e-08  6.5520e-09  1:14:42 3179
   822  5.2451e-04  4.0976e-08  6.6739e-09  1:10:20 3178
   823  5.3434e-04  4.1178e-08  6.7582e-09  1:06:50 3177
   824  5.2054e-04  4.1570e-08  6.8068e-09  1:14:38 3176
   825  5.1054e-04  4.2022e-08  6.8315e-09  1:10:16 3175

  iter  continuity  x-velocity  y-velocity     time/iter
   826  5.1446e-04  4.2317e-08  6.8018e-09  1:06:47 3174
   827  5.2281e-04  4.2220e-08  6.7532e-09  1:14:33 3173
   828  5.1588e-04  4.2639e-08  6.8225e-09  1:10:12 3172
   829  5.1493e-04  4.2566e-08  6.8206e-09  1:06:43 3171
   830  5.1829e-04  4.2011e-08  6.8145e-09  1:14:29 3170
   831  5.2623e-04  4.0908e-08  6.8080e-09  1:10:08 3169
   832  5.2018e-04  4.0753e-08  6.7193e-09  1:17:13 3168
   833  5.1855e-04  4.0261e-08  6.6780e-09  1:12:18 3167
   834  5.1119e-04  4.0126e-08  6.6159e-09  1:08:23 3166
   835  5.0141e-04  4.0235e-08  6.4986e-09  1:15:47 3165
   836  5.0297e-04  3.9563e-08  6.4431e-09  1:11:09 3164

  iter  continuity  x-velocity  y-velocity     time/iter
   837  4.9756e-04  3.9220e-08  6.3054e-09  1:07:27 3163
   838  4.8432e-04  3.9471e-08  6.3089e-09  1:04:29 3162
   839  4.9756e-04  3.9482e-08  6.2583e-09  1:12:39 3161
   840  4.9590e-04  3.9651e-08  6.2215e-09  1:08:38 3160
   841  4.9535e-04  4.0015e-08  6.2189e-09  1:05:25 3159
   842  4.9466e-04  4.0120e-08  6.2496e-09  1:13:22 3158
   843  4.9646e-04  4.0380e-08  6.2865e-09  1:09:12 3157
   844  4.9444e-04  4.0448e-08  6.2711e-09  1:05:52 3156
   845  4.9517e-04  4.0712e-08  6.3170e-09  1:13:42 3155
   846  5.0949e-04  4.0712e-08  6.3820e-09  1:09:28 3154
   847  5.0774e-04  4.1140e-08  6.4260e-09  1:06:04 3153

  iter  continuity  x-velocity  y-velocity     time/iter
   848  5.0663e-04  4.1315e-08  6.4720e-09  1:13:51 3152
   849  5.1256e-04  4.1171e-08  6.5008e-09  1:09:34 3151
   850  5.0997e-04  4.1309e-08  6.5402e-09  1:06:08 3150
   851  5.0461e-04  4.1418e-08  6.5331e-09  1:13:53 3149
   852  5.1011e-04  4.1403e-08  6.5523e-09  1:09:35 3148
   853  5.0809e-04  4.1160e-08  6.5173e-09  1:16:38 3147
   854  5.0091e-04  4.1211e-08  6.4704e-09  1:11:46 3146
   855  5.0763e-04  4.0893e-08  6.4745e-09  1:07:53 3145
   856  5.0749e-04  4.0617e-08  6.4531e-09  1:15:15 3144
   857  5.1341e-04  4.0241e-08  6.3784e-09  1:10:39 3143
   858  5.2307e-04  3.9696e-08  6.3997e-09  1:06:59 3142

  iter  continuity  x-velocity  y-velocity     time/iter
   859  5.0808e-04  3.9544e-08  6.2965e-09  1:04:02 3141
   860  4.9896e-04  3.9708e-08  6.2449e-09  1:12:09 3140
   861  4.9440e-04  4.0139e-08  6.1800e-09  1:08:10 3139
   862  4.9695e-04  4.0443e-08  6.1572e-09  1:04:58 3138
   863  5.0376e-04  4.0633e-08  6.1410e-09  1:12:52 3137
   864  5.0094e-04  4.1077e-08  6.2152e-09  1:08:44 3136
   865  5.0397e-04  4.1277e-08  6.2656e-09  1:05:25 3135
   866  4.9830e-04  4.1592e-08  6.2827e-09  1:13:13 3134
   867  5.0170e-04  4.1751e-08  6.3582e-09  1:09:00 3133
   868  5.0994e-04  4.1745e-08  6.3105e-09  1:05:37 3132
   869  5.1470e-04  4.1972e-08  6.3712e-09  1:13:21 3131

  iter  continuity  x-velocity  y-velocity     time/iter
   870  5.1637e-04  4.2304e-08  6.4276e-09  1:09:06 3130
   871  5.0556e-04  4.2340e-08  6.4574e-09  1:05:41 3129
   872  5.1811e-04  4.2035e-08  6.4612e-09  1:13:23 3128
   873  5.1328e-04  4.1943e-08  6.5222e-09  1:09:07 3127
   874  5.0585e-04  4.1689e-08  6.5115e-09  1:05:42 3126
   875  5.0032e-04  4.1516e-08  6.3946e-09  1:13:22 3125
   876  4.9716e-04  4.1038e-08  6.2891e-09  1:09:06 3124
   877  5.0480e-04  4.0337e-08  6.1848e-09  1:05:40 3123
   878  4.9970e-04  4.0190e-08  6.1331e-09  1:13:20 3122
   879  5.0078e-04  3.9975e-08  6.1102e-09  1:09:03 3121
   880  4.9444e-04  3.9706e-08  6.0691e-09  1:16:01 3120

  iter  continuity  x-velocity  y-velocity     time/iter
   881  4.8814e-04  3.9600e-08  6.0147e-09  1:11:12 3119
   882  4.9323e-04  3.9588e-08  5.9404e-09  1:07:20 3118
   883  4.9537e-04  3.9635e-08  5.9210e-09  1:14:38 3117
   884  4.9480e-04  3.9742e-08  5.9469e-09  1:10:04 3116
   885  4.9615e-04  3.9848e-08  5.9595e-09  1:06:25 3115
   886  4.9553e-04  4.0188e-08  5.9722e-09  1:13:53 3114
   887  5.0933e-04  4.0285e-08  6.0329e-09  1:09:28 3113
   888  5.1509e-04  4.0188e-08  6.1186e-09  1:05:55 3112
   889  5.1359e-04  4.0285e-08  6.1981e-09  1:13:28 3111
   890  5.1240e-04  4.0442e-08  6.2446e-09  1:09:07 3110
   891  5.1295e-04  4.0854e-08  6.2715e-09  1:05:38 3109

  iter  continuity  x-velocity  y-velocity     time/iter
   892  5.1634e-04  4.0984e-08  6.2896e-09  1:13:13 3108
   893  5.1203e-04  4.1302e-08  6.3073e-09  1:08:55 3107
   894  5.0369e-04  4.1557e-08  6.2791e-09  1:05:28 3106
   895  5.1197e-04  4.1446e-08  6.2331e-09  1:13:03 3105
   896  5.0991e-04  4.1068e-08  6.2662e-09  1:08:46 3104
   897  5.0965e-04  4.0845e-08  6.3143e-09  1:05:21 3103
   898  5.1422e-04  4.0386e-08  6.2721e-09  1:12:56 3102
   899  5.0272e-04  4.0381e-08  6.2517e-09  1:08:40 3101
   900  5.0021e-04  4.0493e-08  6.2026e-09  1:05:15 3100
   901  4.9720e-04  4.0316e-08  6.0629e-09  1:12:51 3099
   902  4.9650e-04  4.0212e-08  5.9471e-09  1:08:35 3098

  iter  continuity  x-velocity  y-velocity     time/iter
   903  5.0567e-04  3.9656e-08  5.8755e-09  1:05:10 3097
   904  5.0525e-04  3.9648e-08  5.8559e-09  1:12:46 3096
   905  5.0048e-04  3.9961e-08  5.9369e-09  1:08:30 3095
   906  4.9769e-04  4.0281e-08  5.9387e-09  1:05:06 3094
   907  5.1391e-04  4.0156e-08  6.0234e-09  1:12:41 3093
   908  5.0649e-04  4.0608e-08  6.0222e-09  1:08:26 3092
   909  5.0261e-04  4.0876e-08  6.0779e-09  1:05:02 3091
   910  5.0935e-04  4.1225e-08  6.0848e-09  1:12:37 3090
   911  5.0843e-04  4.1787e-08  6.1238e-09  1:08:22 3089
   912  5.0843e-04  4.1816e-08  6.1385e-09  1:04:58 3088
   913  5.0465e-04  4.2019e-08  6.1456e-09  1:12:32 3087

  iter  continuity  x-velocity  y-velocity     time/iter
   914  5.0397e-04  4.2127e-08  6.1461e-09  1:08:18 3086
   915  5.0044e-04  4.2458e-08  6.1134e-09  1:15:11 3085
   916  5.0319e-04  4.2436e-08  6.1735e-09  1:10:25 3084
   917  4.9677e-04  4.1851e-08  6.1369e-09  1:06:35 3083
   918  5.1213e-04  4.0928e-08  6.0994e-09  1:13:48 3082
   919  5.1187e-04  4.0558e-08  6.0603e-09  1:09:17 3081
   920  5.0633e-04  4.0187e-08  6.0281e-09  1:05:41 3080
   921  4.9449e-04  4.0091e-08  5.9411e-09  1:13:03 3079
   922  5.0032e-04  3.9585e-08  5.9027e-09  1:08:41 3078
   923  4.9870e-04  3.9256e-08  5.8307e-09  1:05:11 3077
   924  5.0110e-04  3.9005e-08  5.8025e-09  1:12:38 3076

  iter  continuity  x-velocity  y-velocity     time/iter
   925  4.9688e-04  3.9141e-08  5.8036e-09  1:08:21 3075
   926  4.9195e-04  3.9084e-08  5.7738e-09  1:15:09 3074
   927  4.9457e-04  3.9343e-08  5.7295e-09  1:10:21 3073
   928  4.9040e-04  3.9722e-08  5.7552e-09  1:16:44 3072
   929  4.9549e-04  3.9738e-08  5.7221e-09  1:11:36 3071
   930  5.1003e-04  3.9688e-08  5.7632e-09  1:07:30 3070
   931  5.2142e-04  3.9865e-08  5.8609e-09  1:14:27 3069
   932  5.0999e-04  4.0200e-08  5.9852e-09  1:09:46 3068
   933  5.0611e-04  4.0520e-08  6.0366e-09  1:16:14 3067
   934  5.1591e-04  4.0621e-08  6.0694e-09  1:11:11 3066
   935  5.1074e-04  4.0972e-08  6.0870e-09  1:07:09 3065

  iter  continuity  x-velocity  y-velocity     time/iter
   936  5.1588e-04  4.1082e-08  6.0964e-09  1:14:08 3064
   937  5.3412e-04  4.1007e-08  6.1995e-09  1:09:30 3063
   938  5.1477e-04  4.1178e-08  6.1974e-09  1:05:47 3062
   939  5.2514e-04  4.0817e-08  6.1771e-09  1:13:01 3061
   940  5.0790e-04  4.1118e-08  6.0949e-09  1:08:36 3060
   941  5.1342e-04  4.0735e-08  6.0607e-09  1:15:15 3059
   942  4.9805e-04  4.0606e-08  6.0010e-09  1:10:22 3058
   943  4.9714e-04  4.0403e-08  5.9491e-09  1:06:28 3057
   944  4.9166e-04  4.0329e-08  5.8469e-09  1:13:32 3056
   945  4.9978e-04  4.0017e-08  5.7564e-09  1:08:59 3055
   946  4.9953e-04  4.0087e-08  5.7169e-09  1:05:21 3054

  iter  continuity  x-velocity  y-velocity     time/iter
   947  5.4224e-04  3.9583e-08  5.7154e-09  1:12:37 3053
   948  5.2511e-04  3.9581e-08  5.9582e-09  1:08:15 3052
   949  5.2060e-04  3.9685e-08  5.9386e-09  1:14:55 3051
   950  5.1641e-04  4.0220e-08  5.9308e-09  1:10:05 3050
   951  5.0683e-04  4.0417e-08  5.9112e-09  1:06:13 3049
   952  5.0540e-04  4.0627e-08  5.8747e-09  1:13:16 3048
   953  5.1266e-04  4.0888e-08  5.9204e-09  1:08:45 3047
   954  5.0798e-04  4.1343e-08  5.9513e-09  1:05:08 3046
   955  5.0366e-04  4.1840e-08  5.9690e-09  1:12:24 3045
   956  5.2281e-04  4.1885e-08  5.9939e-09  1:08:03 3044
   957  5.1316e-04  4.2073e-08  6.0545e-09  1:04:34 3043

  iter  continuity  x-velocity  y-velocity     time/iter
   958  5.1118e-04  4.2141e-08  6.0518e-09  1:11:55 3042
   959  5.0559e-04  4.2307e-08  6.0637e-09  1:07:39 3041
   960  5.0615e-04  4.1746e-08  6.0483e-09  1:04:14 3040
   961  5.0046e-04  4.1271e-08  6.0052e-09  1:11:38 3039
   962  5.0729e-04  4.0962e-08  5.9326e-09  1:07:25 3038
   963  4.9862e-04  4.0689e-08  5.8376e-09  1:04:02 3037
   964  5.0109e-04  4.0448e-08  5.7308e-09  1:11:27 3036
   965  4.8773e-04  4.0242e-08  5.6828e-09  1:07:16 3035
   966  4.9978e-04  3.9710e-08  5.6822e-09  1:03:54 3034
   967  5.0503e-04  3.9174e-08  5.6495e-09  1:11:20 3033
   968  5.1286e-04  3.8780e-08  5.6459e-09  1:07:09 3032

  iter  continuity  x-velocity  y-velocity     time/iter
   969  5.0008e-04  3.8932e-08  5.6580e-09  1:03:48 3031
   970  4.9642e-04  3.9098e-08  5.6526e-09  1:11:14 3030
   971  4.9521e-04  3.9216e-08  5.6138e-09  1:07:04 3029
   972  4.9306e-04  3.9644e-08  5.5654e-09  1:13:49 3028
   973  4.9441e-04  4.0062e-08  5.5439e-09  1:09:07 3027
   974  4.9880e-04  4.0373e-08  5.5643e-09  1:05:22 3026
   975  5.0765e-04  4.0229e-08  5.6447e-09  1:12:27 3025
   976  5.0132e-04  4.0491e-08  5.7604e-09  1:08:01 3024
   977  5.0935e-04  4.0603e-08  5.7708e-09  1:04:28 3023
   978  5.0222e-04  4.0856e-08  5.8507e-09  1:11:42 3022
   979  5.1212e-04  4.0676e-08  5.8036e-09  1:07:25 3021

  iter  continuity  x-velocity  y-velocity     time/iter
   980  5.0345e-04  4.0801e-08  5.8498e-09  1:03:59 3020
   981  5.0197e-04  4.0915e-08  5.8302e-09  1:11:18 3019
   982  4.9750e-04  4.1062e-08  5.8066e-09  1:07:05 3018
   983  5.0421e-04  4.1089e-08  5.7979e-09  1:03:42 3017
   984  4.9605e-04  4.0899e-08  5.8220e-09  1:11:03 3016
   985  5.0050e-04  4.0460e-08  5.8015e-09  1:06:52 3015
   986  4.8783e-04  4.0494e-08  5.7417e-09  1:03:32 3014
   987  4.8629e-04  4.0202e-08  5.6670e-09  1:10:53 3013
   988  4.8856e-04  4.0077e-08  5.5279e-09  1:06:44 3012
   989  4.8734e-04  3.9970e-08  5.4473e-09  1:03:24 3011
   990  4.8423e-04  4.0024e-08  5.4139e-09  1:10:46 3010

  iter  continuity  x-velocity  y-velocity     time/iter
   991  4.8667e-04  4.0206e-08  5.3892e-09  1:06:38 3009
   992  5.0253e-04  3.9972e-08  5.4494e-09  1:03:19 3008
   993  4.9398e-04  4.0391e-08  5.5220e-09  1:10:41 3007
   994  5.0064e-04  4.0541e-08  5.5650e-09  1:06:33 3006
   995  4.9978e-04  4.0811e-08  5.5904e-09  1:13:15 3005
   996  5.0565e-04  4.0912e-08  5.6848e-09  1:08:36 3004
   997  4.9928e-04  4.1424e-08  5.7305e-09  1:04:52 3003
   998  5.0361e-04  4.1721e-08  5.7269e-09  1:11:53 3002
   999  5.2668e-04  4.1460e-08  5.7785e-09  1:07:30 3001
  1000  5.0979e-04  4.1771e-08  5.8693e-09  1:03:59 3000
  1001  5.1277e-04  4.2009e-08  5.8818e-09  1:11:10 2999

  iter  continuity  x-velocity  y-velocity     time/iter
  1002  5.1673e-04  4.2072e-08  5.9337e-09  1:06:54 2998
  1003  5.0849e-04  4.1678e-08  5.9896e-09  1:03:30 2997
  1004  5.1910e-04  4.1029e-08  5.8937e-09  1:10:45 2996
  1005  5.0340e-04  4.0794e-08  5.8662e-09  1:06:34 2995
  1006  4.9239e-04  4.0600e-08  5.7704e-09  1:03:13 2994
  1007  4.8862e-04  4.0492e-08  5.6398e-09  1:10:30 2993
  1008  4.9035e-04  4.0063e-08  5.5691e-09  1:06:22 2992
  1009  4.9064e-04  3.9973e-08  5.4647e-09  1:03:02 2991
  1010  4.8995e-04  3.9643e-08  5.4771e-09  1:10:21 2990
  1011  4.9170e-04  3.9216e-08  5.4189e-09  1:06:13 2989
  1012  4.8792e-04  3.9254e-08  5.3845e-09  1:02:55 2988

  iter  continuity  x-velocity  y-velocity     time/iter
  1013  4.8765e-04  3.9393e-08  5.3788e-09  1:10:14 2987
  1014  4.8610e-04  3.9573e-08  5.3442e-09  1:06:07 2986
  1015  4.9187e-04  3.9633e-08  5.3492e-09  1:02:50 2985
  1016  4.9339e-04  3.9936e-08  5.3629e-09  1:10:08 2984
  1017  4.9547e-04  4.0170e-08  5.4577e-09  1:06:02 2983
  1018  4.9758e-04  4.0260e-08  5.5173e-09  1:02:45 2982
  1019  5.0253e-04  4.0584e-08  5.5254e-09  1:10:03 2981
  1020  4.9313e-04  4.0947e-08  5.5955e-09  1:05:58 2980
  1021  5.0147e-04  4.0934e-08  5.5588e-09  1:12:37 2979
  1022  5.1510e-04  4.0790e-08  5.6575e-09  1:08:00 2978
  1023  5.0341e-04  4.0967e-08  5.7584e-09  1:04:18 2977

  iter  continuity  x-velocity  y-velocity     time/iter
  1024  5.0451e-04  4.1045e-08  5.7309e-09  1:11:16 2976
  1025  5.1759e-04  4.0912e-08  5.7364e-09  1:06:55 2975
  1026  5.1183e-04  4.0721e-08  5.8090e-09  1:03:25 2974
  1027  5.0115e-04  4.0650e-08  5.7816e-09  1:10:32 2973
  1028  4.9631e-04  4.0494e-08  5.6963e-09  1:06:19 2972
  1029  4.8777e-04  4.0477e-08  5.6311e-09  1:02:57 2971
  1030  4.8952e-04  4.0306e-08  5.5670e-09  1:10:08 2970
  1031  4.8208e-04  4.0304e-08  5.4157e-09  1:05:59 2969
  1032  4.9681e-04  3.9778e-08  5.3347e-09  1:02:40 2968
  1033  4.9008e-04  3.9828e-08  5.3399e-09  1:09:54 2967
  1034  4.8758e-04  3.9884e-08  5.2877e-09  1:05:47 2966

  iter  continuity  x-velocity  y-velocity     time/iter
  1035  4.9211e-04  3.9864e-08  5.3145e-09  1:02:30 2965
  1036  4.9107e-04  4.0289e-08  5.3930e-09  1:09:44 2964
  1037  4.9280e-04  4.0583e-08  5.4022e-09  1:05:39 2963
  1038  5.0606e-04  4.0586e-08  5.4818e-09  1:02:22 2962
  1039  5.0301e-04  4.0956e-08  5.5517e-09  1:09:37 2961
  1040  4.9188e-04  4.1286e-08  5.5872e-09  1:05:33 2960
  1041  4.8892e-04  4.1642e-08  5.5411e-09  1:02:17 2959
  1042  5.0118e-04  4.1887e-08  5.5594e-09  1:09:32 2958
  1043  4.9866e-04  4.2133e-08  5.6109e-09  1:05:28 2957
  1044  4.9761e-04  4.2336e-08  5.5638e-09  1:02:12 2956
  1045  4.9533e-04  4.2259e-08  5.5815e-09  1:09:27 2955

  iter  continuity  x-velocity  y-velocity     time/iter
  1046  5.0701e-04  4.1936e-08  5.6754e-09  1:05:23 2954
  1047  4.9879e-04  4.1329e-08  5.6921e-09  1:02:08 2953
  1048  4.9689e-04  4.0999e-08  5.6501e-09  1:09:22 2952
  1049  4.9258e-04  4.0534e-08  5.5585e-09  1:05:19 2951
  1050  4.8843e-04  4.0388e-08  5.4699e-09  1:02:04 2950
  1051  4.8817e-04  3.9916e-08  5.3782e-09  1:09:18 2949
  1052  4.8911e-04  3.9679e-08  5.2887e-09  1:05:15 2948
  1053  4.8163e-04  3.9566e-08  5.3131e-09  1:02:00 2947
  1054  4.8226e-04  3.9404e-08  5.2494e-09  1:09:13 2946
  1055  4.8106e-04  3.9495e-08  5.2278e-09  1:05:11 2945
  1056  4.9901e-04  3.9346e-08  5.2121e-09  1:01:56 2944

  iter  continuity  x-velocity  y-velocity     time/iter
  1057  4.8698e-04  3.9480e-08  5.2611e-09  1:09:09 2943
  1058  4.8227e-04  3.9648e-08  5.2591e-09  1:05:07 2942
  1059  4.9026e-04  3.9912e-08  5.2656e-09  1:01:52 2941
  1060  4.9197e-04  4.0113e-08  5.2724e-09  1:09:05 2940
  1061  4.9017e-04  4.0380e-08  5.3002e-09  1:05:03 2939
  1062  5.0945e-04  4.0283e-08  5.3526e-09  1:01:49 2938
  1063  4.9419e-04  4.0625e-08  5.4564e-09  1:09:01 2937
  1064  4.9492e-04  4.1028e-08  5.5180e-09  1:04:59 2936
  1065  5.0679e-04  4.1123e-08  5.5350e-09  1:01:45 2935
  1066  5.0322e-04  4.1323e-08  5.5778e-09  1:08:56 2934
  1067  5.0038e-04  4.1544e-08  5.6334e-09  1:04:55 2933

  iter  continuity  x-velocity  y-velocity     time/iter
  1068  5.0117e-04  4.1384e-08  5.5526e-09  1:11:27 2932
  1069  5.0234e-04  4.1427e-08  5.5741e-09  1:06:55 2931
  1070  4.9654e-04  4.1168e-08  5.5578e-09  1:03:17 2930
  1071  5.0082e-04  4.0629e-08  5.5675e-09  1:10:08 2929
  1072  4.9144e-04  4.0491e-08  5.5162e-09  1:05:51 2928
  1073  4.8684e-04  4.0378e-08  5.4422e-09  1:02:25 2927
  1074  4.8689e-04  3.9961e-08  5.3527e-09  1:09:25 2926
  1075  5.0383e-04  3.9890e-08  5.2761e-09  1:05:16 2925
  1076  4.9381e-04  3.9849e-08  5.2670e-09  1:01:57 2924
  1077  4.8986e-04  3.9967e-08  5.2588e-09  1:09:02 2923
  1078  4.9874e-04  3.9752e-08  5.2291e-09  1:04:56 2922

  iter  continuity  x-velocity  y-velocity     time/iter
  1079  4.8735e-04  4.0088e-08  5.2466e-09  1:01:40 2921
  1080  4.9137e-04  4.0426e-08  5.3016e-09  1:08:47 2920
  1081  4.9766e-04  4.0753e-08  5.3330e-09  1:04:44 2919
  1082  5.0804e-04  4.0795e-08  5.3798e-09  1:01:30 2918
  1083  5.0016e-04  4.0928e-08  5.4636e-09  1:08:38 2917
  1084  5.0373e-04  4.1069e-08  5.4838e-09  1:04:36 2916
  1085  5.1402e-04  4.1259e-08  5.5595e-09  1:01:23 2915
  1086  5.0726e-04  4.1539e-08  5.6128e-09  1:08:31 2914
  1087  5.0564e-04  4.1865e-08  5.6104e-09  1:04:30 2913
  1088  5.0839e-04  4.2014e-08  5.6082e-09  1:01:18 2912
  1089  5.0285e-04  4.2011e-08  5.6536e-09  1:08:25 2911

  iter  continuity  x-velocity  y-velocity     time/iter
  1090  5.0024e-04  4.1624e-08  5.6349e-09  1:04:25 2910
  1091  4.9260e-04  4.1305e-08  5.5524e-09  1:01:13 2909
  1092  4.8889e-04  4.0953e-08  5.4242e-09  1:08:21 2908
  1093  4.8693e-04  4.0800e-08  5.3260e-09  1:04:21 2907
  1094  4.9577e-04  4.0306e-08  5.3095e-09  1:01:09 2906
  1095  4.9012e-04  3.9924e-08  5.2736e-09  1:08:16 2905
  1096  4.8461e-04  3.9703e-08  5.2253e-09  1:04:16 2904
  1097  4.7748e-04  3.9634e-08  5.1583e-09  1:01:05 2903
  1098  4.8652e-04  3.9465e-08  5.1184e-09  1:08:12 2902
  1099  4.8193e-04  3.9277e-08  5.1328e-09  1:04:12 2901
  1100  5.0072e-04  3.9045e-08  5.1179e-09  1:01:01 2900

  iter  continuity  x-velocity  y-velocity     time/iter
  1101  4.9358e-04  3.9387e-08  5.1645e-09  1:08:07 2899
  1102  4.9626e-04  3.9545e-08  5.1988e-09  1:04:08 2898
  1103  4.9351e-04  3.9857e-08  5.2059e-09  1:00:57 2897
  1104  4.9665e-04  4.0334e-08  5.2461e-09  1:08:03 2896
  1105  5.0644e-04  4.0271e-08  5.2844e-09  1:04:04 2895
  1106  5.0159e-04  4.0479e-08  5.3981e-09  1:00:53 2894
  1107  5.0320e-04  4.0610e-08  5.4499e-09  1:07:59 2893
  1108  4.9491e-04  4.1015e-08  5.4587e-09  1:04:00 2892
  1109  5.0376e-04  4.1272e-08  5.4724e-09  1:00:49 2891
  1110  5.0130e-04  4.1263e-08  5.4724e-09  1:07:54 2890
  1111  5.0095e-04  4.1411e-08  5.4839e-09  1:03:56 2889

  iter  continuity  x-velocity  y-velocity     time/iter
  1112  5.0451e-04  4.1083e-08  5.4879e-09  1:00:46 2888
  1113  4.9061e-04  4.1187e-08  5.4623e-09  1:07:50 2887
  1114  4.8842e-04  4.1060e-08  5.4375e-09  1:03:52 2886
  1115  4.9269e-04  4.0384e-08  5.4139e-09  1:10:19 2885
  1116  4.9012e-04  4.0186e-08  5.3493e-09  1:05:51 2884
  1117  4.8337e-04  4.0216e-08  5.2861e-09  1:02:16 2883
  1118  4.8623e-04  4.0023e-08  5.1254e-09  1:09:01 2882
  1119  4.8406e-04  3.9968e-08  5.0571e-09  1:04:47 2881
  1120  4.8394e-04  4.0038e-08  5.0750e-09  1:01:25 2880
  1121  4.8485e-04  4.0126e-08  5.0484e-09  1:08:19 2879
  1122  4.9254e-04  4.0081e-08  5.1367e-09  1:04:13 2878

  iter  continuity  x-velocity  y-velocity     time/iter
  1123  4.9305e-04  4.0337e-08  5.2035e-09  1:00:57 2877
  1124  4.9542e-04  4.0520e-08  5.2134e-09  1:07:55 2876
  1125  4.9436e-04  4.0715e-08  5.2849e-09  1:03:54 2875
  1126  5.0038e-04  4.0993e-08  5.3604e-09  1:10:16 2874
  1127  4.9983e-04  4.1304e-08  5.3874e-09  1:05:46 2873
  1128  4.9870e-04  4.1687e-08  5.4406e-09  1:02:10 2872
  1129  5.0127e-04  4.1755e-08  5.3938e-09  1:08:51 2871
  1130  5.0038e-04  4.1953e-08  5.4805e-09  1:04:38 2870
  1131  5.0809e-04  4.2166e-08  5.4518e-09  1:01:15 2869
  1132  5.1027e-04  4.1882e-08  5.5447e-09  1:08:06 2868
  1133  5.0969e-04  4.1369e-08  5.6152e-09  1:04:01 2867

  iter  continuity  x-velocity  y-velocity     time/iter
  1134  5.0625e-04  4.1033e-08  5.5884e-09  1:00:45 2866
  1135  4.9262e-04  4.0760e-08  5.5029e-09  1:07:41 2865
  1136  4.9215e-04  4.0521e-08  5.3441e-09  1:03:41 2864
  1137  4.9771e-04  4.0261e-08  5.2776e-09  1:00:28 2863
  1138  5.0021e-04  3.9846e-08  5.2332e-09  0:57:54 2862
  1139  4.9251e-04  3.9675e-08  5.2183e-09  1:05:22 2861
  1140  4.8702e-04  3.9589e-08  5.1784e-09  1:01:49 2860
  1141  4.8471e-04  3.9334e-08  5.1222e-09  0:58:58 2859
  1142  4.8226e-04  3.9225e-08  5.0592e-09  1:06:12 2858
  1143  4.8235e-04  3.9409e-08  5.0022e-09  1:02:28 2857
  1144  4.8054e-04  3.9589e-08  4.9924e-09  0:59:29 2856

  iter  continuity  x-velocity  y-velocity     time/iter
  1145  4.9393e-04  3.9382e-08  5.0541e-09  1:06:36 2855
  1146  4.9126e-04  3.9582e-08  5.0861e-09  1:02:46 2854
  1147  4.9385e-04  3.9870e-08  5.1384e-09  0:59:43 2853
  1148  4.9787e-04  3.9981e-08  5.2036e-09  1:06:46 2852
[...]
  2849  4.9394e-04  3.9765e-08  4.8857e-09  0:27:34 1151

  iter  continuity  x-velocity  y-velocity     time/iter
  2850  5.0287e-04  3.9512e-08  4.8259e-09  0:25:52 1150
  2851  4.9322e-04  3.9359e-08  4.7990e-09  0:24:30 1149
  2852  4.8788e-04  3.9529e-08  4.7450e-09  0:27:14 1148
  2853  4.9232e-04  3.9700e-08  4.7218e-09  0:25:36 1147
  2854  4.9386e-04  4.0110e-08  4.7901e-09  0:24:17 1146
  2855  4.8818e-04  4.0239e-08  4.8278e-09  0:27:02 1145
  2856  5.0511e-04  4.0183e-08  4.8632e-09  0:25:26 1144
  2857  5.1074e-04  4.0336e-08  4.9403e-09  0:24:08 1143
  2858  4.9520e-04  4.0718e-08  5.0284e-09  0:26:54 1142
  2859  5.0521e-04  4.0818e-08  5.0765e-09  0:25:18 1141
  2860  5.0917e-04  4.1152e-08  5.0836e-09  0:24:02 1140

  iter  continuity  x-velocity  y-velocity     time/iter
  2861  4.9177e-04  4.1463e-08  5.0882e-09  0:26:48 1139
  2862  4.9709e-04  4.1502e-08  5.0848e-09  0:25:13 1138
  2863  4.9788e-04  4.1679e-08  5.0903e-09  0:23:57 1137
  2864  5.0626e-04  4.1561e-08  5.1303e-09  0:26:43 1136
  2865  4.9603e-04  4.1418e-08  5.1556e-09  0:25:08 1135
  2866  5.0057e-04  4.1016e-08  5.1461e-09  0:23:52 1134
  2867  4.8817e-04  4.0770e-08  5.0798e-09  0:26:38 1133
  2868  4.8782e-04  4.0558e-08  4.9513e-09  0:25:04 1132
  2869  4.8528e-04  4.0079e-08  4.8765e-09  0:23:48 1131
  2870  4.8378e-04  3.9599e-08  4.8148e-09  0:26:33 1130
  2871  4.8332e-04  3.9188e-08  4.8295e-09  0:24:59 1129

  iter  continuity  x-velocity  y-velocity     time/iter
  2872  4.8192e-04  3.9020e-08  4.7614e-09  0:23:44 1128
  2873  4.8156e-04  3.8901e-08  4.7100e-09  0:26:29 1127
  2874  4.8407e-04  3.8949e-08  4.7285e-09  0:24:55 1126
  2875  4.8847e-04  3.8925e-08  4.7101e-09  0:23:40 1125
  2876  4.8377e-04  3.8994e-08  4.6949e-09  0:26:25 1124
  2877  4.9562e-04  3.9063e-08  4.6927e-09  0:24:51 1123
  2878  4.8735e-04  3.9334e-08  4.7492e-09  0:23:36 1122
  2879  4.8465e-04  3.9604e-08  4.8382e-09  0:26:20 1121
  2880  4.8597e-04  3.9804e-08  4.8783e-09  0:24:47 1120
  2881  4.8933e-04  4.0111e-08  4.8690e-09  0:23:33 1119
  2882  4.9974e-04  4.0466e-08  4.8884e-09  0:26:16 1118

  iter  continuity  x-velocity  y-velocity     time/iter
  2883  5.0866e-04  4.0143e-08  4.9603e-09  0:24:43 1117
  2884  4.9824e-04  4.0393e-08  5.0535e-09  0:23:29 1116
  2885  4.9296e-04  4.0762e-08  5.0734e-09  0:26:12 1115
  2886  5.2468e-04  4.0426e-08  5.1771e-09  0:24:39 1114
  2887  5.0740e-04  4.0588e-08  5.1991e-09  0:27:08 1113
  2888  5.0005e-04  4.0651e-08  5.2151e-09  0:25:23 1112
  2889  4.9530e-04  4.0550e-08  5.1749e-09  0:27:42 1111
  2890  4.9495e-04  4.0268e-08  5.1327e-09  0:25:50 1110
  2891  4.9533e-04  4.0100e-08  5.0730e-09  0:24:21 1109
  2892  4.8934e-04  3.9802e-08  4.9847e-09  0:26:51 1108
  2893  4.9217e-04  3.9720e-08  4.8607e-09  0:25:09 1107

  iter  continuity  x-velocity  y-velocity     time/iter
  2894  4.9553e-04  3.9732e-08  4.8051e-09  0:23:47 1106
  2895  4.8835e-04  3.9724e-08  4.7452e-09  0:26:23 1105
  2896  4.8624e-04  3.9900e-08  4.7403e-09  0:24:46 1104
  2897  4.8631e-04  3.9942e-08  4.7469e-09  0:23:28 1103
  2898  5.0889e-04  3.9891e-08  4.7924e-09  0:26:06 1102
  2899  5.0322e-04  4.0216e-08  4.8929e-09  0:24:32 1101
  2900  4.9070e-04  4.0565e-08  4.9667e-09  0:23:17 1100
  2901  4.9137e-04  4.0924e-08  4.9681e-09  0:25:56 1099
  2902  4.9904e-04  4.1242e-08  4.9954e-09  0:24:23 1098
  2903  5.0088e-04  4.1412e-08  5.0204e-09  0:23:09 1097
  2904  5.0572e-04  4.1729e-08  5.0449e-09  0:25:48 1096

  iter  continuity  x-velocity  y-velocity     time/iter
  2905  5.0932e-04  4.1685e-08  5.1058e-09  0:24:17 1095
  2906  5.0029e-04  4.1620e-08  5.1055e-09  0:23:03 1094
  2907  5.0518e-04  4.1750e-08  5.1195e-09  0:25:43 1093
  2908  4.9465e-04  4.1661e-08  5.1919e-09  0:24:11 1092
  2909  4.8916e-04  4.1346e-08  5.1393e-09  0:22:58 1091
  2910  4.9094e-04  4.0692e-08  5.1145e-09  0:25:38 1090
  2911  4.9110e-04  4.0347e-08  5.0449e-09  0:24:07 1089
  2912  4.8417e-04  3.9994e-08  4.8973e-09  0:22:54 1088
  2913  4.7646e-04  3.9755e-08  4.8469e-09  0:25:33 1087
  2914  4.7951e-04  3.9649e-08  4.7436e-09  0:24:02 1086
  2915  4.7924e-04  3.9427e-08  4.7499e-09  0:22:50 1085

  iter  continuity  x-velocity  y-velocity     time/iter
  2916  4.8000e-04  3.9243e-08  4.7318e-09  0:25:28 1084
  2917  4.8788e-04  3.9052e-08  4.7285e-09  0:23:58 1083
  2918  4.8120e-04  3.9149e-08  4.6863e-09  0:22:46 1082
  2919  4.8851e-04  3.8930e-08  4.7139e-09  0:25:24 1081
  2920  4.8369e-04  3.9178e-08  4.7259e-09  0:23:54 1080
  2921  4.8301e-04  3.9478e-08  4.6960e-09  0:22:42 1079
  2922  4.7981e-04  3.9844e-08  4.7006e-09  0:25:20 1078
  2923  4.8837e-04  4.0052e-08  4.7256e-09  0:23:50 1077
  2924  4.8684e-04  4.0232e-08  4.8345e-09  0:22:38 1076
  2925  4.9217e-04  4.0198e-08  4.8952e-09  0:25:16 1075
  2926  4.9367e-04  4.0234e-08  4.9589e-09  0:23:46 1074

  iter  continuity  x-velocity  y-velocity     time/iter
  2927  4.9582e-04  4.0447e-08  5.0069e-09  0:22:34 1073
  2928  4.9773e-04  4.0456e-08  5.0484e-09  0:25:11 1072
  2929  4.9191e-04  4.0687e-08  5.0472e-09  0:23:42 1071
  2930  4.9452e-04  4.0817e-08  5.0085e-09  0:22:31 1070
  2931  4.9307e-04  4.0879e-08  5.0106e-09  0:25:07 1069
  2932  4.8475e-04  4.0817e-08  4.9860e-09  0:23:38 1068
  2933  4.9058e-04  4.0601e-08  4.9403e-09  0:26:00 1067
  2934  4.8435e-04  4.0445e-08  4.9542e-09  0:24:20 1066
  2935  4.8229e-04  4.0211e-08  4.8820e-09  0:23:00 1065
  2936  4.7880e-04  4.0194e-08  4.7938e-09  0:25:29 1064
  2937  4.7770e-04  4.0101e-08  4.7264e-09  0:23:54 1063

  iter  continuity  x-velocity  y-velocity     time/iter
  2938  4.8212e-04  3.9765e-08  4.6297e-09  0:22:39 1062
  2939  4.7857e-04  3.9697e-08  4.6475e-09  0:25:10 1061
  2940  4.8456e-04  3.9864e-08  4.6631e-09  0:23:39 1060
  2941  4.8435e-04  4.0088e-08  4.7016e-09  0:22:26 1059
  2942  4.8522e-04  4.0146e-08  4.7573e-09  0:24:59 1058
  2943  4.8430e-04  4.0440e-08  4.7699e-09  0:23:30 1057
  2944  4.9433e-04  4.0665e-08  4.8452e-09  0:22:18 1056
  2945  4.9341e-04  4.0834e-08  4.9012e-09  0:24:51 1055
  2946  5.0194e-04  4.1077e-08  4.8966e-09  0:23:23 1054
  2947  4.9875e-04  4.1413e-08  4.9917e-09  0:22:12 1053
  2948  4.9500e-04  4.1670e-08  5.0227e-09  0:24:45 1052

  iter  continuity  x-velocity  y-velocity     time/iter
  2949  5.1151e-04  4.1550e-08  5.0565e-09  0:23:17 1051
  2950  5.0853e-04  4.1712e-08  5.1029e-09  0:22:07 1050
  2951  4.9337e-04  4.1737e-08  5.1735e-09  0:24:40 1049
  2952  4.9824e-04  4.1246e-08  5.1821e-09  0:23:12 1048
  2953  4.8881e-04  4.1093e-08  5.1370e-09  0:22:02 1047
  2954  4.8600e-04  4.0600e-08  5.0540e-09  0:24:35 1046
  2955  4.8225e-04  4.0305e-08  4.8716e-09  0:23:08 1045
  2956  4.7791e-04  4.0086e-08  4.8098e-09  0:21:58 1044
  2957  4.7698e-04  3.9927e-08  4.7908e-09  0:24:31 1043
  2958  4.7719e-04  3.9632e-08  4.7828e-09  0:23:04 1042
  2959  4.7463e-04  3.9311e-08  4.6761e-09  0:21:54 1041

  iter  continuity  x-velocity  y-velocity     time/iter
  2960  4.8994e-04  3.8719e-08  4.6816e-09  0:24:26 1040
  2961  4.7641e-04  3.8971e-08  4.6579e-09  0:23:00 1039
  2962  4.8248e-04  3.9078e-08  4.6631e-09  0:21:50 1038
  2963  4.8526e-04  3.9234e-08  4.6486e-09  0:24:22 1037
  2964  4.7814e-04  3.9497e-08  4.6815e-09  0:22:56 1036
  2965  4.8017e-04  3.9698e-08  4.6919e-09  0:21:47 1035
  2966  4.8408e-04  3.9935e-08  4.7320e-09  0:24:18 1034
  2967  5.0236e-04  3.9864e-08  4.8712e-09  0:22:52 1033
  2968  4.8776e-04  4.0163e-08  4.9212e-09  0:25:09 1032
  2969  4.9490e-04  4.0432e-08  4.9091e-09  0:23:32 1031
  2970  4.9358e-04  4.0508e-08  4.9802e-09  0:22:15 1030

  iter  continuity  x-velocity  y-velocity     time/iter
  2971  4.9123e-04  4.0633e-08  4.9947e-09  0:24:38 1029
  2972  4.9220e-04  4.0794e-08  5.0022e-09  0:23:07 1028
  2973  4.9169e-04  4.0955e-08  5.0144e-09  0:21:54 1027
  2974  4.9010e-04  4.0892e-08  5.0071e-09  0:24:21 1026
  2975  4.8692e-04  4.0844e-08  4.9953e-09  0:22:52 1025
  2976  4.8306e-04  4.0618e-08  4.9622e-09  0:25:06 1024
  2977  4.8217e-04  4.0407e-08  4.9274e-09  0:23:29 1023
  2978  5.1460e-04  3.9738e-08  4.9783e-09  0:22:10 1022
  2979  5.1850e-04  3.9300e-08  5.0199e-09  0:24:31 1021
  2980  5.0470e-04  3.9401e-08  5.0374e-09  0:23:00 1020
  2981  4.9412e-04  3.9608e-08  4.9168e-09  0:21:47 1019

  iter  continuity  x-velocity  y-velocity     time/iter
  2982  4.9315e-04  3.9700e-08  4.8198e-09  0:24:12 1018
  2983  4.9073e-04  3.9964e-08  4.7783e-09  0:22:44 1017
  2984  4.9290e-04  4.0160e-08  4.7675e-09  0:21:33 1016
  2985  4.8960e-04  4.0592e-08  4.7763e-09  0:23:59 1015
  2986  4.9424e-04  4.0633e-08  4.8064e-09  0:22:33 1014
  2987  4.9573e-04  4.0446e-08  4.8485e-09  0:21:24 1013
  2988  5.0538e-04  4.0339e-08  4.9502e-09  0:23:51 1012
  2989  5.1159e-04  4.0637e-08  5.0895e-09  0:22:26 1011
  2990  5.0931e-04  4.1047e-08  5.1470e-09  0:21:18 1010
  2991  5.0480e-04  4.1468e-08  5.1113e-09  0:23:45 1009
  2992  4.9754e-04  4.1750e-08  5.1485e-09  0:22:20 1008

  iter  continuity  x-velocity  y-velocity     time/iter
  2993  5.0491e-04  4.1858e-08  5.1438e-09  0:21:13 1007
  2994  5.0405e-04  4.1878e-08  5.1991e-09  0:23:39 1006
  2995  5.0173e-04  4.1404e-08  5.2021e-09  0:22:15 1005
  2996  4.9696e-04  4.0749e-08  5.1687e-09  0:21:08 1004
  2997  4.9163e-04  4.0630e-08  5.0631e-09  0:23:35 1003
  2998  4.9437e-04  4.0246e-08  5.0433e-09  0:22:11 1002
  2999  4.8800e-04  4.0039e-08  4.9301e-09  0:24:24 1001
  3000  4.9044e-04  3.9666e-08  4.9048e-09  0:22:50 1000
  3001  4.8644e-04  3.9530e-08  4.8027e-09  0:21:35  999
  3002  4.8654e-04  3.9208e-08  4.7836e-09  0:23:54  998
  3003  4.8540e-04  3.9014e-08  4.7014e-09  0:22:25  997

  iter  continuity  x-velocity  y-velocity     time/iter
  3004  4.8570e-04  3.9056e-08  4.7457e-09  0:21:14  996
  3005  4.8804e-04  3.8877e-08  4.6997e-09  0:23:37  995
  3006  4.8704e-04  3.8977e-08  4.7450e-09  0:22:11  994
  3007  4.8743e-04  3.9433e-08  4.7075e-09  0:21:02  993
  3008  4.8995e-04  3.9609e-08  4.7085e-09  0:23:26  992
  3009  4.8932e-04  3.9728e-08  4.7425e-09  0:22:02  991
  3010  4.8474e-04  4.0068e-08  4.7667e-09  0:20:54  990
  3011  4.9279e-04  3.9963e-08  4.8296e-09  0:23:18  989
  3012  4.9124e-04  4.0459e-08  4.8859e-09  0:21:55  988
  3013  4.8797e-04  4.0482e-08  4.9670e-09  0:20:48  987
  3014  4.8635e-04  4.0738e-08  4.9363e-09  0:23:12  986

  iter  continuity  x-velocity  y-velocity     time/iter
  3015  5.2242e-04  4.0444e-08  5.0058e-09  0:21:49  985
  3016  5.0797e-04  4.0572e-08  5.1003e-09  0:20:43  984
  3017  4.9805e-04  4.0832e-08  5.1344e-09  0:23:07  983
  3018  4.9841e-04  4.0388e-08  5.1409e-09  0:21:45  982
  3019  4.9296e-04  4.0338e-08  5.0730e-09  0:23:55  981
  3020  4.8660e-04  4.0079e-08  4.9944e-09  0:22:23  980
  3021  4.8302e-04  4.0252e-08  4.9222e-09  0:21:09  979
  3022  4.8599e-04  4.0133e-08  4.9188e-09  0:23:25  978
  3023  4.8506e-04  3.9911e-08  4.8252e-09  0:21:59  977
  3024  4.8763e-04  4.0058e-08  4.7110e-09  0:20:49  976
  3025  4.8744e-04  3.9867e-08  4.6842e-09  0:23:08  975

  iter  continuity  x-velocity  y-velocity     time/iter
  3026  4.9346e-04  3.9546e-08  4.6801e-09  0:21:44  974
  3027  4.8956e-04  4.0035e-08  4.7773e-09  0:20:37  973
  3028  4.9374e-04  4.0395e-08  4.8148e-09  0:22:57  972
  3029  4.9154e-04  4.0579e-08  4.8843e-09  0:21:35  971
  3030  5.0040e-04  4.0611e-08  4.9317e-09  0:20:29  970
  3031  4.9814e-04  4.0700e-08  4.9558e-09  0:22:50  969
  3032  5.2035e-04  4.0366e-08  5.0112e-09  0:21:28  968
  3033  5.2761e-04  4.0354e-08  5.1080e-09  0:20:23  967
  3034  5.1197e-04  4.1043e-08  5.2031e-09  0:22:44  966
  3035  5.1989e-04  4.1323e-08  5.2572e-09  0:21:23  965
  3036  5.0800e-04  4.1607e-08  5.3013e-09  0:20:18  964

  iter  continuity  x-velocity  y-velocity     time/iter
  3037  5.0977e-04  4.1432e-08  5.1913e-09  0:22:39  963
  3038  4.9337e-04  4.1587e-08  5.2015e-09  0:21:18  962
  3039  4.9197e-04  4.1184e-08  5.1147e-09  0:20:14  961
  3040  4.8490e-04  4.0852e-08  5.0826e-09  0:22:34  960
  3041  4.9604e-04  4.0426e-08  4.9402e-09  0:21:14  959
  3042  4.8265e-04  4.0211e-08  4.9455e-09  0:20:10  958
  3043  4.9027e-04  3.9704e-08  4.8295e-09  0:22:29  957
  3044  4.8746e-04  3.9278e-08  4.8002e-09  0:21:10  956
  3045  4.8125e-04  3.9219e-08  4.8070e-09  0:20:06  955
  3046  4.8557e-04  3.8880e-08  4.7615e-09  0:22:25  954
  3047  4.7778e-04  3.8991e-08  4.7028e-09  0:21:06  953

  iter  continuity  x-velocity  y-velocity     time/iter
  3048  4.7555e-04  3.9147e-08  4.6524e-09  0:20:02  952
  3049  4.7659e-04  3.9201e-08  4.7027e-09  0:22:21  951
  3050  5.0150e-04  3.8980e-08  4.6595e-09  0:21:02  950
  3051  4.8580e-04  3.9432e-08  4.7496e-09  0:19:58  949
  3052  4.9536e-04  3.9496e-08  4.8110e-09  0:22:17  948
  3053  5.0948e-04  3.9671e-08  4.8962e-09  0:20:58  947
  3054  4.9524e-04  4.0070e-08  4.9797e-09  0:19:54  946
  3055  4.9715e-04  4.0237e-08  4.9975e-09  0:22:12  945
  3056  5.0970e-04  4.0557e-08  5.0033e-09  0:20:54  944
  3057  5.0289e-04  4.0790e-08  5.0830e-09  0:22:59  943
  3058  5.1587e-04  4.0398e-08  5.1987e-09  0:21:30  942

  iter  continuity  x-velocity  y-velocity     time/iter
  3059  5.0011e-04  4.0805e-08  5.1266e-09  0:20:19  941
  3060  4.9151e-04  4.0832e-08  5.0920e-09  0:22:30  940
  3061  4.9674e-04  4.0841e-08  5.0422e-09  0:21:07  939
  3062  4.9198e-04  4.0870e-08  5.0636e-09  0:20:00  938
  3063  4.9404e-04  4.0647e-08  5.0378e-09  0:22:14  937
  3064  4.8521e-04  4.0500e-08  5.0101e-09  0:20:53  936
  3065  4.9422e-04  4.0011e-08  4.9136e-09  0:22:55  935
  3066  4.8816e-04  3.9813e-08  4.8910e-09  0:21:26  934
  3067  4.9518e-04  3.9757e-08  4.8021e-09  0:20:14  933
  3068  4.9579e-04  3.9389e-08  4.8034e-09  0:22:23  932
  3069  4.8821e-04  3.9421e-08  4.7677e-09  0:21:00  931

  iter  continuity  x-velocity  y-velocity     time/iter
  3070  4.8337e-04  3.9816e-08  4.7510e-09  0:19:53  930
  3071  4.8405e-04  4.0226e-08  4.7557e-09  0:22:05  929
  3072  4.8566e-04  4.0410e-08  4.7990e-09  0:20:44  928
  3073  4.9430e-04  4.0515e-08  4.8022e-09  0:19:40  927
  3074  4.9085e-04  4.0850e-08  4.8551e-09  0:21:53  926
  3075  5.0724e-04  4.0831e-08  4.9569e-09  0:20:34  925
  3076  5.0692e-04  4.0931e-08  4.9912e-09  0:19:31  924
  3077  5.0485e-04  4.1166e-08  5.0547e-09  0:21:45  923
  3078  4.9959e-04  4.1483e-08  5.1327e-09  0:20:27  922
  3079  5.0094e-04  4.1451e-08  5.1082e-09  0:19:25  921
  3080  5.0313e-04  4.1448e-08  5.1208e-09  0:21:39  920

  iter  continuity  x-velocity  y-velocity     time/iter
  3081  4.9226e-04  4.1731e-08  5.1396e-09  0:20:22  919
  3082  4.9140e-04  4.1407e-08  5.1524e-09  0:19:20  918
  3083  4.8952e-04  4.1032e-08  5.0628e-09  0:21:34  917
  3084  4.9009e-04  4.0698e-08  4.9676e-09  0:20:17  916
  3085  4.9567e-04  3.9891e-08  4.8628e-09  0:19:16  915
  3086  4.8113e-04  3.9853e-08  4.8864e-09  0:21:29  914
  3087  4.7800e-04  3.9714e-08  4.8117e-09  0:20:13  913
  3088  4.7726e-04  3.9518e-08  4.7714e-09  0:19:12  912
  3089  4.8732e-04  3.8957e-08  4.6956e-09  0:21:25  911
  3090  4.8953e-04  3.8769e-08  4.6925e-09  0:20:09  910
  3091  4.7712e-04  3.8868e-08  4.7035e-09  0:19:08  909

  iter  continuity  x-velocity  y-velocity     time/iter
  3092  4.7777e-04  3.9122e-08  4.6597e-09  0:21:20  908
  3093  4.8732e-04  3.9323e-08  4.6862e-09  0:20:04  907
  3094  4.8243e-04  3.9744e-08  4.7326e-09  0:19:04  906
  3095  4.7763e-04  3.9946e-08  4.7241e-09  0:21:16  905
  3096  4.8508e-04  3.9957e-08  4.7764e-09  0:20:00  904
  3097  4.9585e-04  3.9924e-08  4.8360e-09  0:19:00  903
  3098  4.9394e-04  4.0039e-08  4.9119e-09  0:21:12  902
  3099  5.0013e-04  4.0155e-08  4.9855e-09  0:19:56  901
  3100  5.0762e-04  4.0141e-08  5.0628e-09  0:18:56  900
  3101  5.0144e-04  4.0567e-08  5.0713e-09  0:21:07  899
  3102  4.9385e-04  4.0874e-08  5.1410e-09  0:19:52  898

  iter  continuity  x-velocity  y-velocity     time/iter
  3103  4.9696e-04  4.0854e-08  5.0591e-09  0:18:52  897
  3104  4.9614e-04  4.0739e-08  5.0841e-09  0:21:03  896
  3105  5.0937e-04  4.0373e-08  5.0894e-09  0:19:48  895
  3106  4.9013e-04  4.0425e-08  5.0659e-09  0:18:48  894
  3107  4.9884e-04  4.0194e-08  5.0345e-09  0:20:59  893
  3108  4.7992e-04  4.0264e-08  4.9602e-09  0:19:44  892
  3109  4.8981e-04  4.0051e-08  4.8431e-09  0:21:43  891
  3110  4.8146e-04  4.0162e-08  4.7898e-09  0:20:19  890
  3111  4.7360e-04  4.0168e-08  4.6877e-09  0:19:12  889
  3112  4.8367e-04  3.9796e-08  4.6483e-09  0:21:16  888
  3113  4.8813e-04  3.9838e-08  4.6601e-09  0:19:57  887

  iter  continuity  x-velocity  y-velocity     time/iter
  3114  4.8716e-04  4.0113e-08  4.6973e-09  0:18:54  886
  3115  4.9345e-04  4.0232e-08  4.8292e-09  0:21:00  885
  3116  4.9553e-04  4.0381e-08  4.8068e-09  0:19:44  884
  3117  4.9103e-04  4.0669e-08  4.9106e-09  0:21:39  883
  3118  4.9733e-04  4.0886e-08  5.0055e-09  0:20:14  882
  3119  4.9421e-04  4.1014e-08  4.9535e-09  0:19:07  881
  3120  4.9618e-04  4.1379e-08  5.0114e-09  0:21:08  880
  3121  4.9796e-04  4.1721e-08  5.0234e-09  0:19:49  879
  3122  4.9602e-04  4.1738e-08  5.0182e-09  0:18:46  878
  3123  4.9522e-04  4.1768e-08  5.0345e-09  0:20:51  877
  3124  4.9073e-04  4.1789e-08  5.0888e-09  0:19:34  876

  iter  continuity  x-velocity  y-velocity     time/iter
  3125  4.9653e-04  4.1418e-08  5.1504e-09  0:18:34  875
  3126  4.9168e-04  4.0973e-08  5.1047e-09  0:20:39  874
  3127  4.9314e-04  4.0515e-08  5.0352e-09  0:19:25  873
  3128  4.8932e-04  4.0317e-08  4.9715e-09  0:18:25  872
  3129  5.0832e-04  3.9491e-08  4.9365e-09  0:20:32  871
  3130  4.8584e-04  3.9434e-08  4.8720e-09  0:19:18  870
  3131  4.8937e-04  3.9205e-08  4.8459e-09  0:18:19  869
  3132  4.8062e-04  3.9191e-08  4.8039e-09  0:17:32  868
  3133  4.8856e-04  3.8789e-08  4.7927e-09  0:16:54  867
  3134  4.9075e-04  3.8676e-08  4.7565e-09  0:13:30  866
  3135  4.7668e-04  3.8957e-08  4.6983e-09  0:13:40  865

  iter  continuity  x-velocity  y-velocity     time/iter
  3136  4.9088e-04  3.8869e-08  4.7272e-09  0:13:48  864
  3137  4.8349e-04  3.9331e-08  4.7262e-09  0:13:55  863
  3138  4.8089e-04  3.9667e-08  4.7325e-09  0:11:07  862
  3139  5.0425e-04  3.9130e-08  4.8163e-09  0:11:45  861
  3140  4.9449e-04  3.9484e-08  4.9230e-09  0:12:15  860
  3141  4.8825e-04  3.9764e-08  4.9387e-09  0:12:39  859
  3142  4.9815e-04  4.0015e-08  4.9665e-09  0:10:07  858
  3143  5.0502e-04  4.0198e-08  5.0632e-09  0:10:56  857
  3144  4.9999e-04  4.0539e-08  5.0929e-09  0:11:36  856
  3145  5.2133e-04  4.0627e-08  5.1305e-09  0:12:07  855
  3146  5.0517e-04  4.0733e-08  5.1535e-09  0:09:41  854

  iter  continuity  x-velocity  y-velocity     time/iter
  3147  5.0353e-04  4.0622e-08  5.1711e-09  0:10:35  853
  3148  4.9740e-04  4.0560e-08  5.1385e-09  0:11:18  852
  3149  4.9082e-04  4.0470e-08  5.0693e-09  0:11:52  851
  3150  4.8778e-04  4.0293e-08  5.0399e-09  0:09:29  850
  3151  4.8381e-04  4.0204e-08  4.9517e-09  0:10:24  849
  3152  4.7948e-04  4.0187e-08  4.8507e-09  0:11:08  848
  3153  4.8693e-04  3.9869e-08  4.7793e-09  0:11:43  847
  3154  4.9191e-04  3.9626e-08  4.7499e-09  0:12:11  846
  3155  5.0494e-04  3.9327e-08  4.7291e-09  0:09:44  845
Done.

Operation stopped.

Interrupting...
Done.

Warning: An error or interrupt occurred while reading the journal file.
Some commands may not have been completed.

(cx-gui-do cx-activate-item "Information*OK")
/exit y
(cx-gui-do cx-activate-item "Question*OK")

Posting ANSYS Product Improvement Program performance data 
Done.
Auto-Transcript Stop Time:  00:50:41, 14 Aug 2025 GMT Summer Time 
Total Transcript Time: 1 Hour 12 Minute 11 Second.
