Auto-Transcript Start Time:  21:21:16, 20 Jul 2025 GMT Summer Time 
Current Directory: "C:\Users\V.Chepuri\OneDrive - Cranfield University\irp\pablo\re_20000\AOA_3"

              Welcome to ANSYS Fluent 2024 R2

              Copyright 1987-2024 ANSYS, Inc. All Rights Reserved.
              Unauthorized use, distribution or duplication is prohibited.
              This product is subject to U.S. laws governing export and re-export.
              For full Legal Notice, see documentation.

Build Time: May 13 2024 11:28:30 EST  Build Id: 10192  
 
Connected License Server List:	1055@cclic-2.central.cranfield.ac.uk

*********************************************
Info: Your license enables 4-way parallel execution.
For faster simulations, please start the application with the appropriate parallel options.
*********************************************


     --------------------------------------------------------------
     This is an academic version of ANSYS FLUENT. Usage of this product
     license is limited to the terms and conditions specified in your ANSYS
     license form, additional terms section.
     --------------------------------------------------------------
Host spawning Node 0 on machine "37PCL050" (win64).

-------------------------------------------------------------------------------
ID    Hostname  Core  O.S.         PID    Vendor                          
-------------------------------------------------------------------------------
n0    37PCL050  1/28  Windows-x64  27992  Intel(R) Core(TM) i7-14700      
host  37PCL050        Windows-x64  14916  Intel(R) Core(TM) i7-14700      

MPI Option Selected: intel
-------------------------------------------------------------------------------

Cleanup script file is C:\\Users\\V.Chepuri\\OneDrive - Cranfield University\\irp\\pablo\\re_20000\\AOA_3\\cleanup-fluent-37PCL050-14916.bat

Posting ANSYS Product Improvement Program startup data
Done.

> (cx-gui-do cx-activate-item "Key Behavioral Changes*PanelButtons*PushButton1(OK)")
(cx-gui-do cx-activate-item "MenuBar*ReadSubMenu*Case...")
(cx-gui-do cx-set-file-dialog-entries "Select File" '( "template_medium.cas.h5") "CFF Case Files (*.cas.h5 *.msh.h5 *.MSH.h5 )")
Fast-loading "C:\PROGRA~1\ANSYSI~1\v242\fluent\fluent24.2.0\\addons\afd\lib\hdfio.bin"
Done.

37PCL050 has other FLUENT parallel processes running.                       Process affinity not being set.

Reading from 37PCL050:"C:/Users/V.Chepuri/OneDrive - Cranfield University/irp/pablo/re_20000/AOA_3/template_medium.cas.h5" in NODE0 mode ...
  Reading mesh ...
      181070 cells,     4 cell zones ...
          36824 mixed cells,  zone id: 2
         108032 mixed cells,  zone id: 4
          27008 mixed cells,  zone id: 12
           9206 mixed cells,  zone id: 11
      309160 faces,    14 face zones ...
          65137 2D interior faces,  zone id: 3
         181145 2D interior faces,  zone id: 5
             42 2D velocity-inlet faces,  zone id: 6
             38 2D pressure-outlet faces,  zone id: 7
             40 2D velocity-inlet faces,  zone id: 8
            458 2D interior faces,  zone id: 9
            456 2D interior faces,  zone id: 10
            228 2D parent-face faces,  zone id: 19
            229 2D parent-face faces,  zone id: 18
             20 2D parent-face faces,  zone id: 17
             19 2D parent-face faces,  zone id: 16
             21 2D parent-face faces,  zone id: 15
          45157 2D parent-face faces,  zone id: 14
          16170 2D parent-face faces,  zone id: 13
      102461 nodes,     1 node zone  ...
  Done.


Building...
     mesh
     materials,
     interface,
     domains,
	mixture
     zones,
	outlet
	inlet
	interior-fluid
	interior-porous
	symmetry
	upper
	lower
	fluid
	porous
WARNING: "Smooth" contours can't be displayed when node-values is set to off. Changing the Coloring type to "Banded".
     parallel,
Done.
(cx-gui-do cx-set-list-tree-selections "NavigationPane*Frame2*Table1*List_Tree2" (list "Setup|Boundary Conditions|Inlet|inlet (velocity-inlet, id=6)"))
(cx-gui-do cx-set-list-tree-selections "NavigationPane*Frame2*Table1*List_Tree2" (list "Setup|Boundary Conditions|Inlet|inlet (velocity-inlet, id=6)"))
(cx-gui-do cx-activate-item "NavigationPane*Frame2*Table1*List_Tree2")
(cx-gui-do cx-set-list-tree-selections "NavigationPane*Frame2*Table1*List_Tree2" (list "Setup|Boundary Conditions|Inlet|inlet (velocity-inlet, id=6)"))
(cx-gui-do cx-activate-tab-index "Velocity Inlet*Frame2*Frame2" 0)
(cx-gui-do cx-activate-tab-index "Velocity Inlet*Frame2*Frame2" 1)
(cx-gui-do cx-activate-tab-index "Velocity Inlet*Frame2*Frame2" 0)
(cx-gui-do cx-activate-tab-index "Velocity Inlet*Frame2*Frame2" 2)
(cx-gui-do cx-activate-tab-index "Velocity Inlet*Frame2*Frame2" 0)
(cx-gui-do cx-activate-tab-index "Velocity Inlet*Frame2*Frame2" 3)
(cx-gui-do cx-activate-tab-index "Velocity Inlet*Frame2*Frame2" 0)
(cx-gui-do cx-activate-tab-index "Velocity Inlet*Frame2*Frame2" 4)
(cx-gui-do cx-activate-tab-index "Velocity Inlet*Frame2*Frame2" 0)
(cx-gui-do cx-activate-tab-index "Velocity Inlet*Frame2*Frame2" 5)
(cx-gui-do cx-activate-tab-index "Velocity Inlet*Frame2*Frame2" 0)
(cx-gui-do cx-activate-tab-index "Velocity Inlet*Frame2*Frame2" 6)
(cx-gui-do cx-activate-tab-index "Velocity Inlet*Frame2*Frame2" 0)
(cx-gui-do cx-activate-tab-index "Velocity Inlet*Frame2*Frame2" 7)
(cx-gui-do cx-activate-tab-index "Velocity Inlet*Frame2*Frame2" 0)
(cx-gui-do cx-activate-tab-index "Velocity Inlet*Frame2*Frame2" 8)
(cx-gui-do cx-activate-tab-index "Velocity Inlet*Frame2*Frame2" 0)
(cx-gui-do cx-set-list-tree-selections "NavigationPane*Frame2*Table1*List_Tree2" (list "Setup|Boundary Conditions|Inlet|symmetry (velocity-inlet, id=8)"))
(cx-gui-do cx-set-list-tree-selections "NavigationPane*Frame2*Table1*List_Tree2" (list "Setup|Boundary Conditions|Inlet|symmetry (velocity-inlet, id=8)"))
(cx-gui-do cx-activate-item "NavigationPane*Frame2*Table1*List_Tree2")
(cx-gui-do cx-set-list-tree-selections "NavigationPane*Frame2*Table1*List_Tree2" (list "Setup|Boundary Conditions|Inlet|symmetry (velocity-inlet, id=8)"))
(cx-gui-do cx-activate-tab-index "Velocity Inlet*Frame2*Frame2" 0)
(cx-gui-do cx-activate-tab-index "Velocity Inlet*Frame2*Frame2" 1)
(cx-gui-do cx-activate-tab-index "Velocity Inlet*Frame2*Frame2" 0)
(cx-gui-do cx-activate-tab-index "Velocity Inlet*Frame2*Frame2" 2)
(cx-gui-do cx-activate-tab-index "Velocity Inlet*Frame2*Frame2" 0)
(cx-gui-do cx-activate-tab-index "Velocity Inlet*Frame2*Frame2" 3)
(cx-gui-do cx-activate-tab-index "Velocity Inlet*Frame2*Frame2" 0)
(cx-gui-do cx-activate-tab-index "Velocity Inlet*Frame2*Frame2" 4)
(cx-gui-do cx-activate-tab-index "Velocity Inlet*Frame2*Frame2" 0)
(cx-gui-do cx-activate-tab-index "Velocity Inlet*Frame2*Frame2" 5)
(cx-gui-do cx-activate-tab-index "Velocity Inlet*Frame2*Frame2" 0)
(cx-gui-do cx-activate-tab-index "Velocity Inlet*Frame2*Frame2" 6)
(cx-gui-do cx-activate-tab-index "Velocity Inlet*Frame2*Frame2" 0)
(cx-gui-do cx-activate-tab-index "Velocity Inlet*Frame2*Frame2" 7)
(cx-gui-do cx-activate-tab-index "Velocity Inlet*Frame2*Frame2" 0)
(cx-gui-do cx-activate-tab-index "Velocity Inlet*Frame2*Frame2" 8)
(cx-gui-do cx-activate-tab-index "Velocity Inlet*Frame2*Frame2" 0)
(cx-gui-do cx-set-expression-entry "Velocity Inlet*Frame2*Frame2*Frame1(Momentum)*Table1*Table18*ExpressionEntry1(Y-Velocity)" '("0.05233596" . 0))
(cx-gui-do cx-enable-apply-button "Velocity Inlet")
(cx-gui-do cx-set-expression-entry "Velocity Inlet*Frame2*Frame2*Frame1(Momentum)*Table1*Table18*ExpressionEntry1(Y-Velocity)" '("0.05233596" . 0))
(cx-gui-do cx-set-expression-entry "Velocity Inlet*Frame2*Frame2*Frame1(Momentum)*Table1*Table17*ExpressionEntry1(X-Velocity)" '("0.99862953" . 0))
(cx-gui-do cx-set-expression-entry "Velocity Inlet*Frame2*Frame2*Frame1(Momentum)*Table1*Table17*ExpressionEntry1(X-Velocity)" '("0.99862953" . 0))
(cx-gui-do cx-activate-item "Velocity Inlet*PanelButtons*PushButton1(OK)")
(cx-gui-do cx-activate-item "Velocity Inlet*PanelButtons*PushButton2(Cancel)")
(cx-gui-do cx-activate-item "Velocity Inlet*PanelButtons*PushButton1(OK)")
(cx-gui-do cx-activate-item "Velocity Inlet*PanelButtons*PushButton2(Cancel)")
(cx-gui-do cx-activate-item "MenuBar*WriteSubMenu*Case...")
(cx-gui-do cx-set-file-dialog-entries "Select File" '( "template_medium.cas.h5") "CFF Case Files (*.cas.h5 )")
(cx-gui-do cx-activate-item "Question*OK")

Writing to 37PCL050:"C:/Users/V.Chepuri/OneDrive - Cranfield University/irp/pablo/re_20000/AOA_3/template_medium.cas.h5" in NODE0 mode and compression level 1 ...
Grouping cells for Laplace smoothing ...
      181070 cells,     4 zones ...
      309160 faces,    14 zones ...
      102461 nodes,     1 zone  ...
  Done.
Done.
(cx-gui-do cx-activate-item "MenuBar*ReadSubMenu*Journal...")

Reading journal file C:/Users/V.Chepuri/OneDrive - Cranfield University/irp/pablo/re_20000/AOA_3/template.jou...

> ;change to correct dir

file/read-case template_medium.cas.h5 
37PCL050 has other FLUENT parallel processes running.                       Process affinity not being set.

       Clearing partially read grid.

Reading from 37PCL050:"C:\Users\V.Chepuri\OneDrive - Cranfield University\irp\pablo\re_20000\AOA_3\template_medium.cas.h5" in NODE0 mode ...
  Reading mesh ...
      181070 cells,     4 cell zones ...
          36824 mixed cells,  zone id: 2
         108032 mixed cells,  zone id: 4
          27008 mixed cells,  zone id: 12
           9206 mixed cells,  zone id: 11
      309160 faces,    14 face zones ...
          65137 2D interior faces,  zone id: 3
         181145 2D interior faces,  zone id: 5
             42 2D velocity-inlet faces,  zone id: 6
             38 2D pressure-outlet faces,  zone id: 7
             40 2D velocity-inlet faces,  zone id: 8
            458 2D interior faces,  zone id: 9
            456 2D interior faces,  zone id: 10
            228 2D parent-face faces,  zone id: 19
            229 2D parent-face faces,  zone id: 18
             20 2D parent-face faces,  zone id: 17
             19 2D parent-face faces,  zone id: 16
             21 2D parent-face faces,  zone id: 15
          45157 2D parent-face faces,  zone id: 14
          16170 2D parent-face faces,  zone id: 13
      102461 nodes,     1 node zone  ...
  Done.


Building...
     mesh
     materials,
     interface,
     domains,
	mixture
     zones,
	outlet
	inlet
	interior-fluid
	interior-porous
	symmetry
	upper
	lower
	fluid
	porous
WARNING: "Smooth" contours can't be displayed when node-values is set to off. Changing the Coloring type to "Banded".
     parallel,
Done.
OK


Overwrite confirmations (/file/set-batch-options ...)
are on -- will therefore ignore the following journal
Error: invalid command: OK


> 
adjoint/                parallel/               server/
define/                 parametric-study/       solve/
display/                plot/                   surface/
exit                    preferences/            views/
file/                   print-license-usage
mesh/                   report/

> 
adjoint/                parallel/               server/
define/                 parametric-study/       solve/
display/                plot/                   surface/
exit                    preferences/            views/
file/                   print-license-usage
mesh/                   report/

> 
adjoint/                parallel/               server/
define/                 parametric-study/       solve/
display/                plot/                   surface/
exit                    preferences/            views/
file/                   print-license-usage
mesh/                   report/

> ;run simulation
solve/initialize/initialize-flow

> solve/iterate 2000

  iter  continuity  x-velocity  y-velocity           k       omega     time/iter
     1  1.0000e+00  4.2959e-07  2.5538e-05  6.5620e-05  6.0656e-04  0:00:00 1999

 turbulent viscosity limited to viscosity ratio of 1.000000e+05 in 36 cells 
     2  1.0000e+00  5.3695e-05  1.0388e-04  6.1442e-05  1.6502e-03  0:33:18 1998

 turbulent viscosity limited to viscosity ratio of 1.000000e+05 in 64 cells 
     3  3.1133e-01  2.0331e-05  4.2316e-05  5.7978e-05  4.2660e-03  0:26:38 1997

 turbulent viscosity limited to viscosity ratio of 1.000000e+05 in 75 cells 
     4  2.2745e-01  8.3038e-06  2.7102e-05  5.5655e-05  1.3952e-03  0:21:17 1996

 turbulent viscosity limited to viscosity ratio of 1.000000e+05 in 83 cells 
     5  1.5250e-01  5.2383e-06  2.3129e-05  5.2903e-05  2.5950e-04  0:23:40 1995

 turbulent viscosity limited to viscosity ratio of 1.000000e+05 in 85 cells 
     6  1.0833e-01  4.1257e-06  2.1843e-05  5.0407e-05  2.0752e-04  0:18:56 1994

 turbulent viscosity limited to viscosity ratio of 1.000000e+05 in 86 cells 
     7  7.6427e-02  3.6092e-06  2.1464e-05  4.8180e-05  8.7687e-05  0:15:08 1993

 turbulent viscosity limited to viscosity ratio of 1.000000e+05 in 82 cells 
     8  5.3634e-02  3.3641e-06  2.1371e-05  4.6177e-05  7.3515e-05  0:12:06 1992

 turbulent viscosity limited to viscosity ratio of 1.000000e+05 in 80 cells 
     9  3.8564e-02  3.2474e-06  2.1333e-05  4.4425e-05  6.5774e-05  0:09:41 1991

 turbulent viscosity limited to viscosity ratio of 1.000000e+05 in 81 cells 
    10  2.8844e-02  3.1617e-06  2.1232e-05  4.2825e-05  6.0096e-05  0:14:22 1990

 turbulent viscosity limited to viscosity ratio of 1.000000e+05 in 79 cells 
    11  2.2974e-02  3.0679e-06  2.1061e-05  4.1358e-05  5.8018e-05  0:11:29 1989

 turbulent viscosity limited to viscosity ratio of 1.000000e+05 in 78 cells 

  iter  continuity  x-velocity  y-velocity           k       omega     time/iter
    12  1.8730e-02  2.9758e-06  2.0863e-05  4.0007e-05  5.9398e-05  0:09:11 1988

 turbulent viscosity limited to viscosity ratio of 1.000000e+05 in 79 cells 
    13  1.6050e-02  2.9013e-06  2.0697e-05  3.8760e-05  6.5643e-05  0:07:21 1987

 turbulent viscosity limited to viscosity ratio of 1.000000e+05 in 80 cells 
    14  1.4286e-02  2.8437e-06  2.0547e-05  3.7613e-05  6.7257e-05  0:12:30 1986

 turbulent viscosity limited to viscosity ratio of 1.000000e+05 in 77 cells 
    15  1.2849e-02  2.7951e-06  2.0418e-05  3.6554e-05  6.3789e-05  0:09:59 1985

 turbulent viscosity limited to viscosity ratio of 1.000000e+05 in 76 cells 
    16  1.1550e-02  2.7583e-06  2.0296e-05  3.5568e-05  5.9537e-05  0:07:59 1984

 turbulent viscosity limited to viscosity ratio of 1.000000e+05 in 76 cells 
    17  1.0850e-02  2.7249e-06  2.0188e-05  3.4644e-05  5.9881e-05  0:06:23 1983

 turbulent viscosity limited to viscosity ratio of 1.000000e+05 in 76 cells 
    18  1.0327e-02  2.6957e-06  2.0081e-05  3.3779e-05  5.9754e-05  0:05:06 1982

 turbulent viscosity limited to viscosity ratio of 1.000000e+05 in 72 cells 
    19  9.9797e-03  2.6674e-06  1.9976e-05  3.2967e-05  6.0281e-05  0:10:41 1981

 turbulent viscosity limited to viscosity ratio of 1.000000e+05 in 73 cells 
    20  1.0030e-02  2.6414e-06  1.9871e-05  3.2201e-05  6.0936e-05  0:08:33 1980

 turbulent viscosity limited to viscosity ratio of 1.000000e+05 in 74 cells 
    21  9.7482e-03  2.6160e-06  1.9764e-05  3.1479e-05  5.6048e-05  0:06:50 1979

 turbulent viscosity limited to viscosity ratio of 1.000000e+05 in 73 cells 
    22  9.8246e-03  2.5929e-06  1.9659e-05  3.0796e-05  5.6085e-05  0:05:28 1978

 turbulent viscosity limited to viscosity ratio of 1.000000e+05 in 72 cells 

  iter  continuity  x-velocity  y-velocity           k       omega     time/iter
    23  9.7939e-03  2.5719e-06  1.9553e-05  3.0149e-05  5.2201e-05  0:04:22 1977

 turbulent viscosity limited to viscosity ratio of 1.000000e+05 in 71 cells 
    24  9.4148e-03  2.5501e-06  1.9449e-05  2.9532e-05  4.8332e-05  0:03:30 1976

 turbulent viscosity limited to viscosity ratio of 1.000000e+05 in 66 cells 
    25  9.5773e-03  2.5291e-06  1.9347e-05  2.8949e-05  4.7582e-05  0:09:23 1975

 turbulent viscosity limited to viscosity ratio of 1.000000e+05 in 65 cells 
    26  9.6155e-03  2.5095e-06  1.9244e-05  2.8393e-05  4.5885e-05  0:07:30 1974

 turbulent viscosity limited to viscosity ratio of 1.000000e+05 in 65 cells 
    27  9.6009e-03  2.4922e-06  1.9143e-05  2.7863e-05  4.3857e-05  0:06:00 1973

 turbulent viscosity limited to viscosity ratio of 1.000000e+05 in 65 cells 
    28  9.7411e-03  2.4760e-06  1.9043e-05  2.7357e-05  4.4672e-05  0:04:48 1972

 turbulent viscosity limited to viscosity ratio of 1.000000e+05 in 67 cells 
    29  9.8797e-03  2.4600e-06  1.8944e-05  2.6874e-05  4.2687e-05  0:03:50 1971

 turbulent viscosity limited to viscosity ratio of 1.000000e+05 in 67 cells 
    30  9.6205e-03  2.4429e-06  1.8844e-05  2.6410e-05  4.0535e-05  0:09:38 1970

 turbulent viscosity limited to viscosity ratio of 1.000000e+05 in 68 cells 
    31  9.5729e-03  2.4257e-06  1.8746e-05  2.5966e-05  4.1160e-05  0:07:42 1969

 turbulent viscosity limited to viscosity ratio of 1.000000e+05 in 67 cells 
    32  9.6672e-03  2.4104e-06  1.8649e-05  2.5538e-05  4.1628e-05  0:06:09 1968

 turbulent viscosity limited to viscosity ratio of 1.000000e+05 in 66 cells 
    33  9.8053e-03  2.3939e-06  1.8551e-05  2.5128e-05  4.1086e-05  0:04:55 1967

 turbulent viscosity limited to viscosity ratio of 1.000000e+05 in 63 cells 

  iter  continuity  x-velocity  y-velocity           k       omega     time/iter
    34  1.0107e-02  2.3782e-06  1.8456e-05  2.4734e-05  4.0614e-05  0:03:56 1966

 turbulent viscosity limited to viscosity ratio of 1.000000e+05 in 61 cells 
    35  9.7289e-03  2.3638e-06  1.8362e-05  2.4355e-05  4.4500e-05  0:03:09 1965

 turbulent viscosity limited to viscosity ratio of 1.000000e+05 in 60 cells 
    36  9.9344e-03  2.3484e-06  1.8268e-05  2.3988e-05  4.4998e-05  0:09:04 1964

 turbulent viscosity limited to viscosity ratio of 1.000000e+05 in 60 cells 
    37  1.0390e-02  2.3349e-06  1.8174e-05  2.3655e-05  4.6251e-05  0:07:15 1963

 turbulent viscosity limited to viscosity ratio of 1.000000e+05 in 59 cells 
    38  1.0283e-02  2.3196e-06  1.8082e-05  2.3332e-05  4.9712e-05  0:05:48 1962

 turbulent viscosity limited to viscosity ratio of 1.000000e+05 in 56 cells 
    39  1.0128e-02  2.3049e-06  1.7990e-05  2.3020e-05  5.5962e-05  0:04:38 1961

 turbulent viscosity limited to viscosity ratio of 1.000000e+05 in 56 cells 
    40  1.1006e-02  2.2927e-06  1.7901e-05  2.2718e-05  5.8836e-05  0:03:42 1960

 turbulent viscosity limited to viscosity ratio of 1.000000e+05 in 56 cells 
    41  1.1700e-02  2.2761e-06  1.7811e-05  2.2425e-05  5.8591e-05  0:09:30 1959

 turbulent viscosity limited to viscosity ratio of 1.000000e+05 in 57 cells 
    42  1.2296e-02  2.2607e-06  1.7721e-05  2.2145e-05  5.5573e-05  0:07:35 1958

 turbulent viscosity limited to viscosity ratio of 1.000000e+05 in 58 cells 
    43  1.2068e-02  2.2469e-06  1.7632e-05  2.1872e-05  5.4507e-05  0:06:04 1957

 turbulent viscosity limited to viscosity ratio of 1.000000e+05 in 57 cells 
    44  1.1902e-02  2.2304e-06  1.7542e-05  2.1603e-05  5.4201e-05  0:04:51 1956

 turbulent viscosity limited to viscosity ratio of 1.000000e+05 in 56 cells 

  iter  continuity  x-velocity  y-velocity           k       omega     time/iter
    45  1.1665e-02  2.2151e-06  1.7455e-05  2.1343e-05  5.3161e-05  0:03:53 1955

 turbulent viscosity limited to viscosity ratio of 1.000000e+05 in 57 cells 
    46  1.1739e-02  2.1993e-06  1.7372e-05  2.1087e-05  5.2775e-05  0:03:06 1954

 turbulent viscosity limited to viscosity ratio of 1.000000e+05 in 57 cells 
    47  1.1596e-02  2.1868e-06  1.7285e-05  2.0839e-05  4.9507e-05  0:08:59 1953

 turbulent viscosity limited to viscosity ratio of 1.000000e+05 in 55 cells 
    48  1.1432e-02  2.1758e-06  1.7201e-05  2.0599e-05  4.6125e-05  0:07:11 1952

 turbulent viscosity limited to viscosity ratio of 1.000000e+05 in 58 cells 
    49  1.1642e-02  2.1645e-06  1.7120e-05  2.0364e-05  4.4378e-05  0:05:45 1951

 turbulent viscosity limited to viscosity ratio of 1.000000e+05 in 59 cells 
    50  1.2116e-02  2.1519e-06  1.7035e-05  2.0134e-05  4.1476e-05  0:04:36 1950

 turbulent viscosity limited to viscosity ratio of 1.000000e+05 in 56 cells 
    51  1.2192e-02  2.1399e-06  1.6954e-05  1.9910e-05  3.8169e-05  0:03:41 1949

 turbulent viscosity limited to viscosity ratio of 1.000000e+05 in 55 cells 
    52  1.1805e-02  2.1271e-06  1.6871e-05  1.9691e-05  3.5961e-05  0:02:56 1948

 turbulent viscosity limited to viscosity ratio of 1.000000e+05 in 53 cells 
    53  1.1948e-02  2.1152e-06  1.6788e-05  1.9479e-05  3.5177e-05  0:08:50 1947

 turbulent viscosity limited to viscosity ratio of 1.000000e+05 in 52 cells 
    54  1.2377e-02  2.1027e-06  1.6706e-05  1.9271e-05  3.4252e-05  0:07:04 1946

 turbulent viscosity limited to viscosity ratio of 1.000000e+05 in 52 cells 
    55  1.2296e-02  2.0904e-06  1.6623e-05  1.9066e-05  3.3972e-05  0:05:39 1945

 turbulent viscosity limited to viscosity ratio of 1.000000e+05 in 54 cells 

  iter  continuity  x-velocity  y-velocity           k       omega     time/iter
    56  1.2325e-02  2.0781e-06  1.6540e-05  1.8877e-05  3.3565e-05  0:04:31 1944

 turbulent viscosity limited to viscosity ratio of 1.000000e+05 in 54 cells 
    57  1.2682e-02  2.0657e-06  1.6458e-05  1.8699e-05  3.3107e-05  0:03:37 1943

 turbulent viscosity limited to viscosity ratio of 1.000000e+05 in 54 cells 
    58  1.2397e-02  2.0543e-06  1.6377e-05  1.8521e-05  3.2433e-05  0:02:53 1942

 turbulent viscosity limited to viscosity ratio of 1.000000e+05 in 54 cells 
    59  1.2095e-02  2.0421e-06  1.6296e-05  1.8334e-05  3.1641e-05  0:08:47 1941

 turbulent viscosity limited to viscosity ratio of 1.000000e+05 in 54 cells 
    60  1.1906e-02  2.0305e-06  1.6215e-05  1.8136e-05  3.1604e-05  0:07:01 1940

 turbulent viscosity limited to viscosity ratio of 1.000000e+05 in 54 cells 
    61  1.1853e-02  2.0202e-06  1.6136e-05  1.7929e-05  3.2089e-05  0:05:37 1939

 turbulent viscosity limited to viscosity ratio of 1.000000e+05 in 54 cells 
    62  1.1579e-02  2.0067e-06  1.6058e-05  1.7765e-05  3.2957e-05  0:10:57 1938

 turbulent viscosity limited to viscosity ratio of 1.000000e+05 in 54 cells 
    63  1.1648e-02  1.9950e-06  1.5981e-05  1.7577e-05  3.0318e-05  0:08:45 1937

 turbulent viscosity limited to viscosity ratio of 1.000000e+05 in 54 cells 
    64  1.1769e-02  1.9839e-06  1.5904e-05  1.7409e-05  3.0010e-05  0:07:00 1936

 turbulent viscosity limited to viscosity ratio of 1.000000e+05 in 54 cells 
    65  1.1818e-02  1.9739e-06  1.5827e-05  1.7262e-05  3.0237e-05  0:05:36 1935

 turbulent viscosity limited to viscosity ratio of 1.000000e+05 in 54 cells 
    66  1.1996e-02  1.9624e-06  1.5752e-05  1.7129e-05  2.9905e-05  0:04:29 1934

 turbulent viscosity limited to viscosity ratio of 1.000000e+05 in 56 cells 

  iter  continuity  x-velocity  y-velocity           k       omega     time/iter
    67  1.1777e-02  1.9520e-06  1.5678e-05  1.6985e-05  3.0544e-05  0:03:35 1933

 turbulent viscosity limited to viscosity ratio of 1.000000e+05 in 54 cells 
    68  1.2022e-02  1.9417e-06  1.5602e-05  1.6780e-05  2.9861e-05  0:09:18 1932

 turbulent viscosity limited to viscosity ratio of 1.000000e+05 in 55 cells 
    69  1.2252e-02  1.9307e-06  1.5525e-05  1.6612e-05  2.7935e-05  0:07:26 1931

 turbulent viscosity limited to viscosity ratio of 1.000000e+05 in 56 cells 
    70  1.2586e-02  1.9208e-06  1.5451e-05  1.6465e-05  2.8065e-05  0:05:57 1930

 turbulent viscosity limited to viscosity ratio of 1.000000e+05 in 57 cells 
    71  1.2964e-02  1.9110e-06  1.5379e-05  1.6336e-05  2.9024e-05  0:04:45 1929

 turbulent viscosity limited to viscosity ratio of 1.000000e+05 in 56 cells 
    72  1.3353e-02  1.9011e-06  1.5310e-05  1.6209e-05  2.8808e-05  0:03:48 1928

 turbulent viscosity limited to viscosity ratio of 1.000000e+05 in 57 cells 
    73  1.3278e-02  1.8918e-06  1.5234e-05  1.6006e-05  2.9922e-05  0:03:02 1927

 turbulent viscosity limited to viscosity ratio of 1.000000e+05 in 57 cells 
    74  1.3091e-02  1.8810e-06  1.5158e-05  1.5836e-05  2.8465e-05  0:08:51 1926

 turbulent viscosity limited to viscosity ratio of 1.000000e+05 in 58 cells 
    75  1.3196e-02  1.8695e-06  1.5085e-05  1.5681e-05  2.8332e-05  0:07:05 1925

 turbulent viscosity limited to viscosity ratio of 1.000000e+05 in 57 cells 
    76  1.3003e-02  1.8603e-06  1.5014e-05  1.5544e-05  2.8469e-05  0:05:40 1924

 turbulent viscosity limited to viscosity ratio of 1.000000e+05 in 59 cells 
    77  1.2632e-02  1.8515e-06  1.4944e-05  1.5424e-05  2.7235e-05  0:04:31 1923

 turbulent viscosity limited to viscosity ratio of 1.000000e+05 in 59 cells 

  iter  continuity  x-velocity  y-velocity           k       omega     time/iter
    78  1.2874e-02  1.8443e-06  1.4877e-05  1.5299e-05  2.7308e-05  0:03:37 1922

 turbulent viscosity limited to viscosity ratio of 1.000000e+05 in 59 cells 
    79  1.2658e-02  1.8348e-06  1.4804e-05  1.5130e-05  2.7072e-05  0:02:54 1921

 turbulent viscosity limited to viscosity ratio of 1.000000e+05 in 60 cells 
    80  1.2308e-02  1.8256e-06  1.4732e-05  1.4966e-05  2.6978e-05  0:08:43 1920

 turbulent viscosity limited to viscosity ratio of 1.000000e+05 in 61 cells 
    81  1.2133e-02  1.8153e-06  1.4662e-05  1.4815e-05  2.4882e-05  0:06:58 1919

 turbulent viscosity limited to viscosity ratio of 1.000000e+05 in 63 cells 
    82  1.1736e-02  1.8064e-06  1.4591e-05  1.4667e-05  2.3693e-05  0:05:34 1918

 turbulent viscosity limited to viscosity ratio of 1.000000e+05 in 64 cells 
    83  1.1597e-02  1.7962e-06  1.4521e-05  1.4514e-05  2.2351e-05  0:04:27 1917

 turbulent viscosity limited to viscosity ratio of 1.000000e+05 in 64 cells 
    84  1.1752e-02  1.7855e-06  1.4452e-05  1.4369e-05  2.1377e-05  0:03:34 1916

 turbulent viscosity limited to viscosity ratio of 1.000000e+05 in 64 cells 
    85  1.1461e-02  1.7739e-06  1.4384e-05  1.4233e-05  2.0696e-05  0:02:51 1915

 turbulent viscosity limited to viscosity ratio of 1.000000e+05 in 66 cells 
    86  1.1206e-02  1.7627e-06  1.4318e-05  1.4106e-05  2.0331e-05  0:08:39 1914

 turbulent viscosity limited to viscosity ratio of 1.000000e+05 in 67 cells 
    87  1.1133e-02  1.7534e-06  1.4250e-05  1.3987e-05  1.9473e-05  0:06:55 1913

 turbulent viscosity limited to viscosity ratio of 1.000000e+05 in 67 cells 
    88  1.1019e-02  1.7433e-06  1.4184e-05  1.3873e-05  1.8689e-05  0:05:32 1912

 turbulent viscosity limited to viscosity ratio of 1.000000e+05 in 68 cells 

  iter  continuity  x-velocity  y-velocity           k       omega     time/iter
    89  1.0614e-02  1.7333e-06  1.4118e-05  1.3770e-05  1.8264e-05  0:04:26 1911

 turbulent viscosity limited to viscosity ratio of 1.000000e+05 in 70 cells 
    90  1.0554e-02  1.7238e-06  1.4053e-05  1.3661e-05  1.8014e-05  0:03:32 1910

 turbulent viscosity limited to viscosity ratio of 1.000000e+05 in 72 cells 
    91  1.0531e-02  1.7147e-06  1.3991e-05  1.3560e-05  1.8033e-05  0:02:50 1909

 turbulent viscosity limited to viscosity ratio of 1.000000e+05 in 72 cells 
    92  1.0345e-02  1.7055e-06  1.3929e-05  1.3442e-05  1.8026e-05  0:08:37 1908

 turbulent viscosity limited to viscosity ratio of 1.000000e+05 in 72 cells 
    93  1.0296e-02  1.6971e-06  1.3861e-05  1.3298e-05  1.7034e-05  0:06:54 1907

 turbulent viscosity limited to viscosity ratio of 1.000000e+05 in 74 cells 
    94  1.0083e-02  1.6889e-06  1.3798e-05  1.3187e-05  1.6810e-05  0:05:31 1906

 turbulent viscosity limited to viscosity ratio of 1.000000e+05 in 77 cells 
    95  9.9323e-03  1.6796e-06  1.3735e-05  1.3083e-05  1.6595e-05  0:04:24 1905

 turbulent viscosity limited to viscosity ratio of 1.000000e+05 in 77 cells 
    96  9.9906e-03  1.6732e-06  1.3671e-05  1.2998e-05  1.6439e-05  0:03:31 1904

 turbulent viscosity limited to viscosity ratio of 1.000000e+05 in 77 cells 
    97  1.0216e-02  1.6686e-06  1.3609e-05  1.2946e-05  1.6218e-05  0:02:49 1903

 turbulent viscosity limited to viscosity ratio of 1.000000e+05 in 78 cells 
    98  1.0412e-02  1.6639e-06  1.3552e-05  1.2907e-05  1.5336e-05  0:08:36 1902

 turbulent viscosity limited to viscosity ratio of 1.000000e+05 in 79 cells 
    99  1.0446e-02  1.6507e-06  1.3493e-05  1.2774e-05  1.4917e-05  0:06:52 1901

 turbulent viscosity limited to viscosity ratio of 1.000000e+05 in 83 cells 

  iter  continuity  x-velocity  y-velocity           k       omega     time/iter
   100  1.0305e-02  1.6495e-06  1.3435e-05  1.2708e-05  1.5120e-05  0:05:30 1900

 turbulent viscosity limited to viscosity ratio of 1.000000e+05 in 84 cells 
   101  1.0452e-02  1.6469e-06  1.3376e-05  1.2689e-05  1.5569e-05  0:04:24 1899

 turbulent viscosity limited to viscosity ratio of 1.000000e+05 in 85 cells 
   102  1.0558e-02  1.6474e-06  1.3322e-05  1.2650e-05  1.5928e-05  0:03:31 1898

 turbulent viscosity limited to viscosity ratio of 1.000000e+05 in 84 cells 
   103  1.0863e-02  1.6438e-06  1.3268e-05  1.2504e-05  1.4570e-05  0:02:49 1897

 turbulent viscosity limited to viscosity ratio of 1.000000e+05 in 85 cells 
   104  1.1202e-02  1.6345e-06  1.3213e-05  1.2330e-05  1.5066e-05  0:08:34 1896

 turbulent viscosity limited to viscosity ratio of 1.000000e+05 in 85 cells 
   105  1.0642e-02  1.6186e-06  1.3141e-05  1.2174e-05  1.3225e-05  0:06:51 1895

 turbulent viscosity limited to viscosity ratio of 1.000000e+05 in 85 cells 
   106  1.0203e-02  1.6062e-06  1.3073e-05  1.2093e-05  1.3224e-05  0:05:29 1894

 turbulent viscosity limited to viscosity ratio of 1.000000e+05 in 87 cells 
   107  1.0123e-02  1.5953e-06  1.3014e-05  1.2047e-05  1.3494e-05  0:04:23 1893

 turbulent viscosity limited to viscosity ratio of 1.000000e+05 in 90 cells 
   108  1.0134e-02  1.5903e-06  1.2966e-05  1.2013e-05  1.3869e-05  0:09:48 1892

 turbulent viscosity limited to viscosity ratio of 1.000000e+05 in 88 cells 
   109  1.0123e-02  1.5858e-06  1.2917e-05  1.1889e-05  1.4214e-05  0:07:51 1891

 turbulent viscosity limited to viscosity ratio of 1.000000e+05 in 88 cells 
   110  9.7136e-03  1.5705e-06  1.2842e-05  1.1738e-05  1.2844e-05  0:06:16 1890

 turbulent viscosity limited to viscosity ratio of 1.000000e+05 in 89 cells 

  iter  continuity  x-velocity  y-velocity           k       omega     time/iter
   111  9.3491e-03  1.5581e-06  1.2776e-05  1.1641e-05  1.2864e-05  0:05:01 1889

 turbulent viscosity limited to viscosity ratio of 1.000000e+05 in 87 cells 
   112  9.0664e-03  1.5469e-06  1.2714e-05  1.1582e-05  1.3219e-05  0:04:01 1888

 turbulent viscosity limited to viscosity ratio of 1.000000e+05 in 86 cells 
   113  8.9846e-03  1.5385e-06  1.2663e-05  1.1533e-05  1.3015e-05  0:03:12 1887

 turbulent viscosity limited to viscosity ratio of 1.000000e+05 in 86 cells 
   114  8.9353e-03  1.5335e-06  1.2611e-05  1.1459e-05  1.3273e-05  0:08:51 1886

 turbulent viscosity limited to viscosity ratio of 1.000000e+05 in 87 cells 
   115  8.8503e-03  1.5287e-06  1.2558e-05  1.1339e-05  1.2416e-05  0:07:05 1885

 turbulent viscosity limited to viscosity ratio of 1.000000e+05 in 88 cells 
   116  8.6665e-03  1.5211e-06  1.2491e-05  1.1249e-05  1.2311e-05  0:05:39 1884

 turbulent viscosity limited to viscosity ratio of 1.000000e+05 in 88 cells 
   117  8.5514e-03  1.5077e-06  1.2436e-05  1.1169e-05  1.2259e-05  0:04:31 1883

 turbulent viscosity limited to viscosity ratio of 1.000000e+05 in 88 cells 
   118  8.2501e-03  1.4974e-06  1.2376e-05  1.1091e-05  1.2262e-05  0:03:37 1882

 turbulent viscosity limited to viscosity ratio of 1.000000e+05 in 89 cells 
   119  8.1662e-03  1.4906e-06  1.2322e-05  1.1019e-05  1.2344e-05  0:02:54 1881

 turbulent viscosity limited to viscosity ratio of 1.000000e+05 in 89 cells 
   120  8.0898e-03  1.4844e-06  1.2265e-05  1.0944e-05  1.2648e-05  0:08:35 1880

 turbulent viscosity limited to viscosity ratio of 1.000000e+05 in 89 cells 
   121  7.9008e-03  1.4767e-06  1.2206e-05  1.0855e-05  1.2031e-05  0:06:52 1879

 turbulent viscosity limited to viscosity ratio of 1.000000e+05 in 88 cells 

  iter  continuity  x-velocity  y-velocity           k       omega     time/iter
   122  7.8152e-03  1.4682e-06  1.2150e-05  1.0781e-05  1.2001e-05  0:05:29 1878

 turbulent viscosity limited to viscosity ratio of 1.000000e+05 in 88 cells 
   123  7.7420e-03  1.4597e-06  1.2096e-05  1.0710e-05  1.1949e-05  0:04:23 1877

 turbulent viscosity limited to viscosity ratio of 1.000000e+05 in 88 cells 
   124  7.5825e-03  1.4526e-06  1.2042e-05  1.0640e-05  1.1913e-05  0:03:30 1876

 turbulent viscosity limited to viscosity ratio of 1.000000e+05 in 88 cells 
   125  7.4520e-03  1.4455e-06  1.1989e-05  1.0570e-05  1.1880e-05  0:02:48 1875

 turbulent viscosity limited to viscosity ratio of 1.000000e+05 in 87 cells 
   126  7.3637e-03  1.4392e-06  1.1937e-05  1.0501e-05  1.1845e-05  0:08:29 1874

 turbulent viscosity limited to viscosity ratio of 1.000000e+05 in 87 cells 
   127  7.4026e-03  1.4329e-06  1.1884e-05  1.0433e-05  1.1821e-05  0:06:47 1873

 turbulent viscosity limited to viscosity ratio of 1.000000e+05 in 87 cells 
   128  7.4137e-03  1.4272e-06  1.1832e-05  1.0365e-05  1.1802e-05  0:05:26 1872

 turbulent viscosity limited to viscosity ratio of 1.000000e+05 in 88 cells 
   129  7.2778e-03  1.4201e-06  1.1777e-05  1.0297e-05  1.1776e-05  0:04:20 1871

 turbulent viscosity limited to viscosity ratio of 1.000000e+05 in 88 cells 
   130  7.1098e-03  1.4117e-06  1.1725e-05  1.0230e-05  1.1797e-05  0:03:28 1870

 turbulent viscosity limited to viscosity ratio of 1.000000e+05 in 87 cells 
   131  6.9492e-03  1.4039e-06  1.1673e-05  1.0163e-05  1.1648e-05  0:02:46 1869

 turbulent viscosity limited to viscosity ratio of 1.000000e+05 in 87 cells 
   132  6.8105e-03  1.3968e-06  1.1620e-05  1.0098e-05  1.1602e-05  0:08:27 1868

 turbulent viscosity limited to viscosity ratio of 1.000000e+05 in 87 cells 

  iter  continuity  x-velocity  y-velocity           k       omega     time/iter
   133  6.6496e-03  1.3890e-06  1.1567e-05  1.0032e-05  1.1558e-05  0:06:45 1867

 turbulent viscosity limited to viscosity ratio of 1.000000e+05 in 88 cells 
   134  6.4603e-03  1.3813e-06  1.1514e-05  9.9672e-06  1.1518e-05  0:05:24 1866

 turbulent viscosity limited to viscosity ratio of 1.000000e+05 in 87 cells 
   135  6.3195e-03  1.3728e-06  1.1462e-05  9.9028e-06  1.1485e-05  0:04:19 1865

 turbulent viscosity limited to viscosity ratio of 1.000000e+05 in 87 cells 
   136  6.2086e-03  1.3662e-06  1.1413e-05  9.8388e-06  1.1458e-05  0:03:27 1864

 turbulent viscosity limited to viscosity ratio of 1.000000e+05 in 88 cells 
   137  6.2820e-03  1.3602e-06  1.1363e-05  9.7752e-06  1.1413e-05  0:02:46 1863

 turbulent viscosity limited to viscosity ratio of 1.000000e+05 in 87 cells 
   138  6.2204e-03  1.3534e-06  1.1313e-05  9.7120e-06  1.1381e-05  0:08:25 1862

 turbulent viscosity limited to viscosity ratio of 1.000000e+05 in 86 cells 
   139  6.2411e-03  1.3477e-06  1.1263e-05  9.6493e-06  1.1348e-05  0:06:44 1861

 turbulent viscosity limited to viscosity ratio of 1.000000e+05 in 86 cells 
   140  6.2860e-03  1.3415e-06  1.1213e-05  9.5869e-06  1.1321e-05  0:05:23 1860

 turbulent viscosity limited to viscosity ratio of 1.000000e+05 in 84 cells 
   141  6.3967e-03  1.3348e-06  1.1162e-05  9.5250e-06  1.1286e-05  0:04:18 1859

 turbulent viscosity limited to viscosity ratio of 1.000000e+05 in 85 cells 
   142  6.4512e-03  1.3278e-06  1.1113e-05  9.4634e-06  1.1259e-05  0:03:26 1858

 turbulent viscosity limited to viscosity ratio of 1.000000e+05 in 86 cells 
   143  6.3565e-03  1.3212e-06  1.1064e-05  9.4023e-06  1.1230e-05  0:08:56 1857

 turbulent viscosity limited to viscosity ratio of 1.000000e+05 in 87 cells 

  iter  continuity  x-velocity  y-velocity           k       omega     time/iter
   144  6.2661e-03  1.3144e-06  1.1014e-05  9.3416e-06  1.1216e-05  0:07:09 1856

 turbulent viscosity limited to viscosity ratio of 1.000000e+05 in 86 cells 
   145  6.1369e-03  1.3072e-06  1.0965e-05  9.2812e-06  1.1217e-05  0:05:43 1855

 turbulent viscosity limited to viscosity ratio of 1.000000e+05 in 86 cells 
   146  5.9912e-03  1.3004e-06  1.0916e-05  9.2212e-06  1.1103e-05  0:04:34 1854

 turbulent viscosity limited to viscosity ratio of 1.000000e+05 in 86 cells 
   147  5.8757e-03  1.2934e-06  1.0868e-05  9.1617e-06  1.1073e-05  0:03:39 1853

 turbulent viscosity limited to viscosity ratio of 1.000000e+05 in 86 cells 
   148  5.8114e-03  1.2863e-06  1.0820e-05  9.1025e-06  1.1048e-05  0:02:55 1852

 turbulent viscosity limited to viscosity ratio of 1.000000e+05 in 85 cells 
   149  5.7376e-03  1.2797e-06  1.0773e-05  9.0437e-06  1.1038e-05  0:08:30 1851

 turbulent viscosity limited to viscosity ratio of 1.000000e+05 in 84 cells 
   150  5.5841e-03  1.2736e-06  1.0725e-05  8.9854e-06  1.0982e-05  0:06:48 1850

 turbulent viscosity limited to viscosity ratio of 1.000000e+05 in 83 cells 
   151  5.6194e-03  1.2675e-06  1.0679e-05  8.9277e-06  1.0947e-05  0:05:26 1849

 turbulent viscosity limited to viscosity ratio of 1.000000e+05 in 83 cells 
   152  5.6067e-03  1.2618e-06  1.0631e-05  8.8705e-06  1.0923e-05  0:04:21 1848

 turbulent viscosity limited to viscosity ratio of 1.000000e+05 in 81 cells 
   153  5.6266e-03  1.2553e-06  1.0586e-05  8.8138e-06  1.0905e-05  0:03:29 1847

 turbulent viscosity limited to viscosity ratio of 1.000000e+05 in 81 cells 
   154  5.5772e-03  1.2501e-06  1.0539e-05  8.7577e-06  1.0894e-05  0:08:56 1846

 turbulent viscosity limited to viscosity ratio of 1.000000e+05 in 82 cells 

  iter  continuity  x-velocity  y-velocity           k       omega     time/iter
   155  5.6299e-03  1.2434e-06  1.0495e-05  8.7022e-06  1.0895e-05  0:07:09 1845

 turbulent viscosity limited to viscosity ratio of 1.000000e+05 in 83 cells 
   156  5.6103e-03  1.2386e-06  1.0452e-05  8.6474e-06  1.0926e-05  0:05:43 1844

 turbulent viscosity limited to viscosity ratio of 1.000000e+05 in 83 cells 
   157  5.6836e-03  1.2357e-06  1.0410e-05  8.5917e-06  1.1025e-05  0:04:34 1843

 turbulent viscosity limited to viscosity ratio of 1.000000e+05 in 82 cells 
   158  5.5433e-03  1.2329e-06  1.0366e-05  8.5332e-06  1.0835e-05  0:03:39 1842

 turbulent viscosity limited to viscosity ratio of 1.000000e+05 in 81 cells 
   159  5.6347e-03  1.2261e-06  1.0323e-05  8.4776e-06  1.0781e-05  0:02:55 1841

 turbulent viscosity limited to viscosity ratio of 1.000000e+05 in 83 cells 
   160  5.4021e-03  1.2193e-06  1.0279e-05  8.4231e-06  1.0698e-05  0:08:28 1840

 turbulent viscosity limited to viscosity ratio of 1.000000e+05 in 83 cells 
   161  5.4879e-03  1.2141e-06  1.0233e-05  8.3690e-06  1.0650e-05  0:06:46 1839

 turbulent viscosity limited to viscosity ratio of 1.000000e+05 in 83 cells 
   162  5.2913e-03  1.2070e-06  1.0188e-05  8.3154e-06  1.0587e-05  0:05:25 1838

 turbulent viscosity limited to viscosity ratio of 1.000000e+05 in 83 cells 
   163  5.4407e-03  1.2028e-06  1.0144e-05  8.2622e-06  1.0536e-05  0:04:20 1837

 turbulent viscosity limited to viscosity ratio of 1.000000e+05 in 82 cells 
   164  5.2864e-03  1.1972e-06  1.0103e-05  8.2093e-06  1.0484e-05  0:03:28 1836

 turbulent viscosity limited to viscosity ratio of 1.000000e+05 in 81 cells 
   165  5.4325e-03  1.1941e-06  1.0061e-05  8.1569e-06  1.0430e-05  0:02:46 1835

 turbulent viscosity limited to viscosity ratio of 1.000000e+05 in 81 cells 

  iter  continuity  x-velocity  y-velocity           k       omega     time/iter
   166  5.3958e-03  1.1892e-06  1.0021e-05  8.1049e-06  1.0375e-05  0:08:20 1834

 turbulent viscosity limited to viscosity ratio of 1.000000e+05 in 80 cells 
   167  5.5752e-03  1.1860e-06  9.9808e-06  8.0532e-06  1.0321e-05  0:06:39 1833

 turbulent viscosity limited to viscosity ratio of 1.000000e+05 in 79 cells 
   168  5.5927e-03  1.1812e-06  9.9410e-06  8.0020e-06  1.0275e-05  0:05:19 1832

 turbulent viscosity limited to viscosity ratio of 1.000000e+05 in 79 cells 
   169  5.8359e-03  1.1790e-06  9.9015e-06  7.9515e-06  1.0153e-05  0:04:15 1831

 turbulent viscosity limited to viscosity ratio of 1.000000e+05 in 78 cells 
   170  5.9017e-03  1.1730e-06  9.8626e-06  7.9014e-06  1.0108e-05  0:03:24 1830

 turbulent viscosity limited to viscosity ratio of 1.000000e+05 in 78 cells 
   171  6.0899e-03  1.1714e-06  9.8227e-06  7.8519e-06  1.0002e-05  0:02:43 1829

 turbulent viscosity limited to viscosity ratio of 1.000000e+05 in 78 cells 
   172  6.0705e-03  1.1662e-06  9.7852e-06  7.8028e-06  9.9940e-06  0:08:16 1828

 turbulent viscosity limited to viscosity ratio of 1.000000e+05 in 80 cells 
   173  6.3598e-03  1.1640e-06  9.7450e-06  7.7541e-06  9.9753e-06  0:06:37 1827

 turbulent viscosity limited to viscosity ratio of 1.000000e+05 in 79 cells 
   174  6.2820e-03  1.1602e-06  9.7058e-06  7.7051e-06  1.0320e-05  0:05:17 1826

 turbulent viscosity limited to viscosity ratio of 1.000000e+05 in 80 cells 
   175  6.2906e-03  1.1576e-06  9.6624e-06  7.6557e-06  1.0674e-05  0:04:14 1825

 turbulent viscosity limited to viscosity ratio of 1.000000e+05 in 80 cells 
   176  6.2132e-03  1.1492e-06  9.6206e-06  7.6078e-06  1.1439e-05  0:03:23 1824

 turbulent viscosity limited to viscosity ratio of 1.000000e+05 in 84 cells 

  iter  continuity  x-velocity  y-velocity           k       omega     time/iter
   177  6.4166e-03  1.1462e-06  9.5814e-06  7.5597e-06  1.1269e-05  0:02:42 1823

 turbulent viscosity limited to viscosity ratio of 1.000000e+05 in 84 cells 
   178  6.1194e-03  1.1381e-06  9.5397e-06  7.5126e-06  1.1267e-05  0:08:14 1822

 turbulent viscosity limited to viscosity ratio of 1.000000e+05 in 83 cells 
   179  6.1240e-03  1.1364e-06  9.5004e-06  7.4662e-06  1.1306e-05  0:06:35 1821

 turbulent viscosity limited to viscosity ratio of 1.000000e+05 in 88 cells 
   180  5.9899e-03  1.1276e-06  9.4582e-06  7.4194e-06  1.1257e-05  0:05:16 1820

 turbulent viscosity limited to viscosity ratio of 1.000000e+05 in 87 cells 
   181  5.9599e-03  1.1263e-06  9.4190e-06  7.3737e-06  1.0937e-05  0:04:13 1819

 turbulent viscosity limited to viscosity ratio of 1.000000e+05 in 89 cells 
   182  5.9177e-03  1.1165e-06  9.3763e-06  7.3285e-06  1.0524e-05  0:03:22 1818

 turbulent viscosity limited to viscosity ratio of 1.000000e+05 in 89 cells 
   183  6.0637e-03  1.1163e-06  9.3369e-06  7.2830e-06  1.0155e-05  0:02:41 1817

 turbulent viscosity limited to viscosity ratio of 1.000000e+05 in 88 cells 
   184  5.8507e-03  1.1045e-06  9.2929e-06  7.2383e-06  9.9681e-06  0:08:12 1816

 turbulent viscosity limited to viscosity ratio of 1.000000e+05 in 87 cells 
   185  5.8805e-03  1.1035e-06  9.2525e-06  7.1941e-06  9.9022e-06  0:06:34 1815

 turbulent viscosity limited to viscosity ratio of 1.000000e+05 in 90 cells 
   186  5.7672e-03  1.0920e-06  9.2080e-06  7.1503e-06  9.8499e-06  0:05:15 1814

 turbulent viscosity limited to viscosity ratio of 1.000000e+05 in 91 cells 
   187  5.9346e-03  1.0976e-06  9.1675e-06  7.1076e-06  1.2819e-05  0:04:12 1813

 turbulent viscosity limited to viscosity ratio of 1.000000e+05 in 90 cells 

  iter  continuity  x-velocity  y-velocity           k       omega     time/iter
   188  6.2972e-03  1.1018e-06  9.1298e-06  7.0669e-06  9.7982e-06  0:03:21 1812

 turbulent viscosity limited to viscosity ratio of 1.000000e+05 in 89 cells 
   189  6.4317e-03  1.1031e-06  9.0992e-06  7.0237e-06  9.6177e-06  0:02:41 1811

 turbulent viscosity limited to viscosity ratio of 1.000000e+05 in 90 cells 
   190  6.6788e-03  1.0946e-06  9.0575e-06  6.9804e-06  9.5476e-06  0:08:11 1810

 turbulent viscosity limited to viscosity ratio of 1.000000e+05 in 91 cells 
   191  6.8760e-03  1.0906e-06  9.0202e-06  6.9381e-06  9.5973e-06  0:06:32 1809

 turbulent viscosity limited to viscosity ratio of 1.000000e+05 in 91 cells 
   192  7.5026e-03  1.1047e-06  8.9810e-06  6.8985e-06  9.6182e-06  0:05:14 1808

 turbulent viscosity limited to viscosity ratio of 1.000000e+05 in 89 cells 
   193  7.2864e-03  1.0883e-06  8.9393e-06  6.8572e-06  1.0351e-05  0:04:11 1807

 turbulent viscosity limited to viscosity ratio of 1.000000e+05 in 90 cells 
   194  8.0825e-03  1.0887e-06  8.9047e-06  6.8173e-06  1.0256e-05  0:03:21 1806

 turbulent viscosity limited to viscosity ratio of 1.000000e+05 in 91 cells 
   195  7.0431e-03  1.0784e-06  8.8705e-06  6.7758e-06  9.9615e-06  0:02:40 1805

 turbulent viscosity limited to viscosity ratio of 1.000000e+05 in 93 cells 
   196  7.6456e-03  1.0566e-06  8.8192e-06  6.7362e-06  9.8367e-06  0:08:09 1804

 turbulent viscosity limited to viscosity ratio of 1.000000e+05 in 94 cells 
   197  6.2933e-03  1.0480e-06  8.7811e-06  6.6977e-06  9.6969e-06  0:06:31 1803

 turbulent viscosity limited to viscosity ratio of 1.000000e+05 in 93 cells 
   198  7.1786e-03  1.0375e-06  8.7352e-06  6.6586e-06  9.6714e-06  0:05:13 1802

 turbulent viscosity limited to viscosity ratio of 1.000000e+05 in 93 cells 

  iter  continuity  x-velocity  y-velocity           k       omega     time/iter
   199  6.1564e-03  1.0256e-06  8.6891e-06  6.6204e-06  9.5160e-06  0:04:10 1801

 turbulent viscosity limited to viscosity ratio of 1.000000e+05 in 93 cells 
   200  6.5532e-03  1.0199e-06  8.6531e-06  6.5822e-06  9.4563e-06  0:09:20 1800

 turbulent viscosity limited to viscosity ratio of 1.000000e+05 in 92 cells 
   201  5.9720e-03  1.0150e-06  8.6109e-06  6.5449e-06  9.3670e-06  0:07:28 1799

 turbulent viscosity limited to viscosity ratio of 1.000000e+05 in 92 cells 
   202  5.8730e-03  1.0061e-06  8.5782e-06  6.5084e-06  9.3338e-06  0:05:58 1798

 turbulent viscosity limited to viscosity ratio of 1.000000e+05 in 94 cells 
   203  5.7732e-03  1.0094e-06  8.5354e-06  6.4737e-06  9.3486e-06  0:04:46 1797

 turbulent viscosity limited to viscosity ratio of 1.000000e+05 in 90 cells 
   204  5.9232e-03  1.0177e-06  8.5064e-06  6.4432e-06  9.4137e-06  0:03:49 1796

 turbulent viscosity limited to viscosity ratio of 1.000000e+05 in 89 cells 
   205  5.2260e-03  1.0017e-06  8.4600e-06  6.4059e-06  9.3415e-06  0:03:03 1795

 turbulent viscosity limited to viscosity ratio of 1.000000e+05 in 90 cells 
   206  4.9914e-03  9.8207e-07  8.4204e-06  6.3673e-06  9.4649e-06  0:08:25 1794

 turbulent viscosity limited to viscosity ratio of 1.000000e+05 in 89 cells 
   207  5.8467e-03  9.9257e-07  8.3877e-06  6.3336e-06  1.0153e-05  0:06:44 1793

 turbulent viscosity limited to viscosity ratio of 1.000000e+05 in 89 cells 
   208  5.2941e-03  9.7923e-07  8.3541e-06  6.2977e-06  9.9749e-06  0:05:23 1792

 turbulent viscosity limited to viscosity ratio of 1.000000e+05 in 88 cells 
   209  6.5003e-03  9.7370e-07  8.3110e-06  6.2621e-06  9.9194e-06  0:04:18 1791

 turbulent viscosity limited to viscosity ratio of 1.000000e+05 in 86 cells 

  iter  continuity  x-velocity  y-velocity           k       omega     time/iter
   210  5.6902e-03  9.7176e-07  8.2822e-06  6.2309e-06  9.7432e-06  0:03:26 1790

 turbulent viscosity limited to viscosity ratio of 1.000000e+05 in 86 cells 
   211  6.0088e-03  9.6683e-07  8.2433e-06  6.1945e-06  9.7368e-06  0:02:45 1789

 turbulent viscosity limited to viscosity ratio of 1.000000e+05 in 86 cells 
   212  5.2077e-03  9.5862e-07  8.2066e-06  6.1626e-06  9.5505e-06  0:08:10 1788

 turbulent viscosity limited to viscosity ratio of 1.000000e+05 in 86 cells 
   213  5.1031e-03  9.5801e-07  8.1719e-06  6.1325e-06  9.5449e-06  0:06:31 1787

 turbulent viscosity limited to viscosity ratio of 1.000000e+05 in 83 cells 
   214  4.5323e-03  9.3804e-07  8.1266e-06  6.0979e-06  9.4100e-06  0:05:13 1786

 turbulent viscosity limited to viscosity ratio of 1.000000e+05 in 82 cells 
   215  4.0961e-03  9.2858e-07  8.0864e-06  6.0649e-06  9.2709e-06  0:04:10 1785

 turbulent viscosity limited to viscosity ratio of 1.000000e+05 in 82 cells 
   216  4.3187e-03  9.3149e-07  8.0502e-06  6.0359e-06  9.2592e-06  0:03:20 1784

 turbulent viscosity limited to viscosity ratio of 1.000000e+05 in 83 cells 
   217  3.9499e-03  9.2088e-07  8.0138e-06  6.0038e-06  9.1953e-06  0:02:40 1783

 turbulent viscosity limited to viscosity ratio of 1.000000e+05 in 83 cells 
   218  3.8702e-03  9.1376e-07  7.9791e-06  5.9722e-06  9.1338e-06  0:08:04 1782

 turbulent viscosity limited to viscosity ratio of 1.000000e+05 in 85 cells 
   219  4.0491e-03  9.1459e-07  7.9464e-06  5.9440e-06  9.2019e-06  0:06:27 1781

 turbulent viscosity limited to viscosity ratio of 1.000000e+05 in 83 cells 
   220  4.1199e-03  9.3240e-07  7.9241e-06  5.9280e-06  1.1154e-05  0:05:10 1780

 turbulent viscosity limited to viscosity ratio of 1.000000e+05 in 82 cells 

  iter  continuity  x-velocity  y-velocity           k       omega     time/iter
   221  8.5678e-03  9.3457e-07  7.9253e-06  5.8858e-06  1.1190e-05  0:04:08 1779

 turbulent viscosity limited to viscosity ratio of 1.000000e+05 in 83 cells 
   222  5.9146e-03  9.3714e-07  7.9263e-06  5.8554e-06  1.0636e-05  0:03:18 1778

 turbulent viscosity limited to viscosity ratio of 1.000000e+05 in 83 cells 
   223  5.3912e-03  9.2480e-07  7.8555e-06  5.8325e-06  1.0009e-05  0:02:38 1777

 turbulent viscosity limited to viscosity ratio of 1.000000e+05 in 83 cells 
   224  5.7743e-03  9.0674e-07  7.8136e-06  5.8008e-06  1.0064e-05  0:08:02 1776

 turbulent viscosity limited to viscosity ratio of 1.000000e+05 in 85 cells 
   225  4.8794e-03  9.0100e-07  7.7807e-06  5.7734e-06  1.1226e-05  0:06:25 1775

 turbulent viscosity limited to viscosity ratio of 1.000000e+05 in 83 cells 
   226  5.4526e-03  9.0518e-07  7.7408e-06  5.7494e-06  1.0775e-05  0:05:08 1774

 turbulent viscosity limited to viscosity ratio of 1.000000e+05 in 80 cells 
   227  5.7293e-03  8.9656e-07  7.7145e-06  5.7188e-06  1.0261e-05  0:04:06 1773

 turbulent viscosity limited to viscosity ratio of 1.000000e+05 in 78 cells 
   228  4.7998e-03  8.8948e-07  7.6825e-06  5.6899e-06  1.2133e-05  0:03:17 1772

 turbulent viscosity limited to viscosity ratio of 1.000000e+05 in 78 cells 
   229  5.3346e-03  8.9487e-07  7.6439e-06  5.6702e-06  1.0233e-05  0:02:37 1771

 turbulent viscosity limited to viscosity ratio of 1.000000e+05 in 77 cells 
   230  5.6369e-03  8.8471e-07  7.6140e-06  5.6406e-06  9.6200e-06  0:08:00 1770

 turbulent viscosity limited to viscosity ratio of 1.000000e+05 in 78 cells 
   231  4.6760e-03  8.7093e-07  7.5798e-06  5.6116e-06  1.0829e-05  0:06:24 1769

 turbulent viscosity limited to viscosity ratio of 1.000000e+05 in 78 cells 

  iter  continuity  x-velocity  y-velocity           k       omega     time/iter
   232  4.9212e-03  8.7301e-07  7.5443e-06  5.5897e-06  9.9319e-06  0:05:07 1768

 turbulent viscosity limited to viscosity ratio of 1.000000e+05 in 77 cells 
   233  5.1422e-03  8.6578e-07  7.5123e-06  5.5625e-06  9.4385e-06  0:04:05 1767

 turbulent viscosity limited to viscosity ratio of 1.000000e+05 in 78 cells 
   234  4.3479e-03  8.5362e-07  7.4797e-06  5.5337e-06  1.1149e-05  0:03:16 1766

 turbulent viscosity limited to viscosity ratio of 1.000000e+05 in 75 cells 
   235  4.6584e-03  8.5414e-07  7.4474e-06  5.5134e-06  9.7853e-06  0:02:37 1765

 turbulent viscosity limited to viscosity ratio of 1.000000e+05 in 77 cells 
   236  5.0555e-03  8.5048e-07  7.4181e-06  5.4868e-06  9.4030e-06  0:07:58 1764

 turbulent viscosity limited to viscosity ratio of 1.000000e+05 in 77 cells 
   237  4.1737e-03  8.3842e-07  7.3840e-06  5.4595e-06  1.0636e-05  0:06:22 1763

 turbulent viscosity limited to viscosity ratio of 1.000000e+05 in 74 cells 
   238  4.4368e-03  8.3816e-07  7.3497e-06  5.4409e-06  9.6446e-06  0:05:06 1762

 turbulent viscosity limited to viscosity ratio of 1.000000e+05 in 76 cells 
   239  4.7402e-03  8.3346e-07  7.3157e-06  5.4130e-06  1.4904e-05  0:04:04 1761

 turbulent viscosity limited to viscosity ratio of 1.000000e+05 in 76 cells 
   240  4.1572e-03  8.3114e-07  7.2893e-06  5.3933e-06  1.1032e-05  0:03:15 1760

 turbulent viscosity limited to viscosity ratio of 1.000000e+05 in 74 cells 
   241  4.7060e-03  8.3544e-07  7.2632e-06  5.3710e-06  9.6009e-06  0:02:36 1759

 turbulent viscosity limited to viscosity ratio of 1.000000e+05 in 74 cells 
   242  5.0024e-03  8.2807e-07  7.2289e-06  5.3431e-06  9.1382e-06  0:07:57 1758

 turbulent viscosity limited to viscosity ratio of 1.000000e+05 in 74 cells 

  iter  continuity  x-velocity  y-velocity           k       omega     time/iter
   243  4.2339e-03  8.1546e-07  7.1960e-06  5.3189e-06  1.0274e-05  0:06:21 1757

 turbulent viscosity limited to viscosity ratio of 1.000000e+05 in 71 cells 
   244  4.4482e-03  8.1404e-07  7.1593e-06  5.3005e-06  9.4484e-06  0:05:05 1756

 turbulent viscosity limited to viscosity ratio of 1.000000e+05 in 68 cells 
   245  4.8291e-03  8.0967e-07  7.1289e-06  5.2749e-06  9.2239e-06  0:04:04 1755

 turbulent viscosity limited to viscosity ratio of 1.000000e+05 in 67 cells 
   246  4.0659e-03  8.0243e-07  7.1009e-06  5.2535e-06  1.0615e-05  0:09:06 1754

 turbulent viscosity limited to viscosity ratio of 1.000000e+05 in 65 cells 
   247  4.3356e-03  7.9857e-07  7.0643e-06  5.2344e-06  9.8285e-06  0:07:16 1753

 turbulent viscosity limited to viscosity ratio of 1.000000e+05 in 61 cells 
   248  4.6812e-03  7.9642e-07  7.0350e-06  5.2112e-06  9.7872e-06  0:05:49 1752

 turbulent viscosity limited to viscosity ratio of 1.000000e+05 in 61 cells 
   249  4.1558e-03  7.8795e-07  7.0061e-06  5.1883e-06  1.1066e-05  0:04:39 1751

 turbulent viscosity limited to viscosity ratio of 1.000000e+05 in 57 cells 
   250  4.4035e-03  7.8669e-07  6.9731e-06  5.1714e-06  9.8778e-06  0:03:43 1750

 turbulent viscosity limited to viscosity ratio of 1.000000e+05 in 55 cells 
   251  4.7187e-03  7.8354e-07  6.9434e-06  5.1471e-06  9.8921e-06  0:02:58 1749

 turbulent viscosity limited to viscosity ratio of 1.000000e+05 in 52 cells 
   252  4.3272e-03  7.7852e-07  6.9165e-06  5.1266e-06  1.1237e-05  0:08:12 1748

 turbulent viscosity limited to viscosity ratio of 1.000000e+05 in 53 cells 
   253  4.4461e-03  7.7657e-07  6.8861e-06  5.1080e-06  1.0641e-05  0:06:33 1747

 turbulent viscosity limited to viscosity ratio of 1.000000e+05 in 51 cells 

  iter  continuity  x-velocity  y-velocity           k       omega     time/iter
   254  4.9197e-03  7.7372e-07  6.8604e-06  5.0866e-06  1.0985e-05  0:05:15 1746

 turbulent viscosity limited to viscosity ratio of 1.000000e+05 in 50 cells 
   255  4.8725e-03  7.6970e-07  6.8323e-06  5.0651e-06  1.1987e-05  0:04:12 1745

 turbulent viscosity limited to viscosity ratio of 1.000000e+05 in 47 cells 
   256  4.8269e-03  7.7008e-07  6.8059e-06  5.0484e-06  1.1479e-05  0:03:21 1744

 turbulent viscosity limited to viscosity ratio of 1.000000e+05 in 46 cells 
   257  6.0631e-03  7.6594e-07  6.7796e-06  5.0258e-06  1.1821e-05  0:02:41 1743

 turbulent viscosity limited to viscosity ratio of 1.000000e+05 in 45 cells 
   258  5.9071e-03  7.6233e-07  6.7477e-06  5.0065e-06  1.2304e-05  0:07:57 1742

 turbulent viscosity limited to viscosity ratio of 1.000000e+05 in 46 cells 
   259  5.6772e-03  7.5922e-07  6.7176e-06  4.9860e-06  1.0596e-05  0:06:21 1741

 turbulent viscosity limited to viscosity ratio of 1.000000e+05 in 43 cells 
   260  5.6078e-03  7.5444e-07  6.6891e-06  4.9683e-06  1.0192e-05  0:05:05 1740

 turbulent viscosity limited to viscosity ratio of 1.000000e+05 in 45 cells 
   261  5.5915e-03  7.5146e-07  6.6625e-06  4.9488e-06  1.1154e-05  0:04:04 1739

 turbulent viscosity limited to viscosity ratio of 1.000000e+05 in 44 cells 
   262  5.6841e-03  7.5096e-07  6.6370e-06  4.9317e-06  1.0873e-05  0:03:15 1738

 turbulent viscosity limited to viscosity ratio of 1.000000e+05 in 46 cells 
   263  5.8168e-03  7.4964e-07  6.6098e-06  4.9122e-06  1.0297e-05  0:08:23 1737

 turbulent viscosity limited to viscosity ratio of 1.000000e+05 in 46 cells 
   264  5.7667e-03  7.4926e-07  6.5861e-06  4.8953e-06  1.0004e-05  0:06:42 1736

 turbulent viscosity limited to viscosity ratio of 1.000000e+05 in 43 cells 

  iter  continuity  x-velocity  y-velocity           k       omega     time/iter
   265  5.9670e-03  7.4739e-07  6.5603e-06  4.8766e-06  9.6042e-06  0:05:22 1735

 turbulent viscosity limited to viscosity ratio of 1.000000e+05 in 39 cells 
   266  6.2806e-03  7.5079e-07  6.5411e-06  4.8571e-06  9.7623e-06  0:04:17 1734

 turbulent viscosity limited to viscosity ratio of 1.000000e+05 in 38 cells 
   267  6.8059e-03  7.5124e-07  6.5185e-06  4.8384e-06  1.0455e-05  0:03:26 1733

 turbulent viscosity limited to viscosity ratio of 1.000000e+05 in 38 cells 
   268  7.2464e-03  7.5714e-07  6.5029e-06  4.8202e-06  1.1089e-05  0:02:44 1732

 turbulent viscosity limited to viscosity ratio of 1.000000e+05 in 38 cells 
   269  7.7091e-03  7.6167e-07  6.4858e-06  4.8025e-06  1.0773e-05  0:02:11 1731

 turbulent viscosity limited to viscosity ratio of 1.000000e+05 in 34 cells 
   270  7.8129e-03  7.6847e-07  6.4710e-06  4.7878e-06  1.0308e-05  0:07:31 1730

 turbulent viscosity limited to viscosity ratio of 1.000000e+05 in 28 cells 
   271  8.3184e-03  7.7554e-07  6.4544e-06  4.7689e-06  1.0052e-05  0:06:01 1729

 turbulent viscosity limited to viscosity ratio of 1.000000e+05 in 26 cells 
   272  8.5948e-03  7.8379e-07  6.4459e-06  4.7506e-06  9.8963e-06  0:04:48 1728

 turbulent viscosity limited to viscosity ratio of 1.000000e+05 in 28 cells 
   273  8.9194e-03  7.9286e-07  6.4388e-06  4.7349e-06  1.3796e-05  0:03:51 1727

 turbulent viscosity limited to viscosity ratio of 1.000000e+05 in 26 cells 
   274  1.0928e-02  8.2201e-07  6.4387e-06  4.7196e-06  1.0951e-05  0:03:04 1726

 turbulent viscosity limited to viscosity ratio of 1.000000e+05 in 22 cells 
   275  1.2436e-02  8.4910e-07  6.4500e-06  4.7002e-06  1.1192e-05  0:02:27 1725

 turbulent viscosity limited to viscosity ratio of 1.000000e+05 in 20 cells 

  iter  continuity  x-velocity  y-velocity           k       omega     time/iter
   276  1.4487e-02  8.9855e-07  6.4681e-06  4.6828e-06  1.0066e-05  0:07:43 1724

 turbulent viscosity limited to viscosity ratio of 1.000000e+05 in 17 cells 
   277  1.7064e-02  9.4162e-07  6.4944e-06  4.6663e-06  9.8305e-06  0:06:10 1723

 turbulent viscosity limited to viscosity ratio of 1.000000e+05 in 15 cells 
   278  1.9451e-02  9.8989e-07  6.5313e-06  4.6499e-06  1.0886e-05  0:04:56 1722

 turbulent viscosity limited to viscosity ratio of 1.000000e+05 in 15 cells 
   279  2.4132e-02  1.0686e-06  6.5512e-06  4.6340e-06  1.0573e-05  0:03:56 1721

 turbulent viscosity limited to viscosity ratio of 1.000000e+05 in 16 cells 
   280  2.6064e-02  1.1012e-06  6.5737e-06  4.6173e-06  1.2054e-05  0:03:09 1720

 turbulent viscosity limited to viscosity ratio of 1.000000e+05 in 16 cells 
   281  2.7583e-02  1.0757e-06  6.6203e-06  4.6038e-06  1.5761e-05  0:02:31 1719

 turbulent viscosity limited to viscosity ratio of 1.000000e+05 in 17 cells 
   282  3.5229e-02  1.2194e-06  6.5734e-06  4.5857e-06  8.6670e-06  0:07:44 1718

 turbulent viscosity limited to viscosity ratio of 1.000000e+05 in 18 cells 
   283  4.1585e-02  1.2739e-06  6.7166e-06  4.5714e-06  8.2162e-06  0:06:11 1717

 turbulent viscosity limited to viscosity ratio of 1.000000e+05 in 19 cells 
   284  3.9892e-02  1.2721e-06  6.6443e-06  4.5551e-06  8.3973e-06  0:04:57 1716

 turbulent viscosity limited to viscosity ratio of 1.000000e+05 in 18 cells 
   285  3.9241e-02  1.1217e-06  6.5874e-06  4.5408e-06  8.0769e-06  0:03:57 1715

 turbulent viscosity limited to viscosity ratio of 1.000000e+05 in 19 cells 
   286  3.8284e-02  1.1360e-06  6.4960e-06  4.5296e-06  7.8978e-06  0:03:10 1714

 turbulent viscosity limited to viscosity ratio of 1.000000e+05 in 18 cells 

  iter  continuity  x-velocity  y-velocity           k       omega     time/iter
   287  4.2391e-02  1.0571e-06  6.4136e-06  4.5158e-06  1.1229e-05  0:02:32 1713

 turbulent viscosity limited to viscosity ratio of 1.000000e+05 in 20 cells 
   288  4.7170e-02  1.0223e-06  6.3967e-06  4.5050e-06  1.0715e-05  0:07:44 1712

 turbulent viscosity limited to viscosity ratio of 1.000000e+05 in 17 cells 
   289  5.1065e-02  1.0204e-06  6.2831e-06  4.4919e-06  7.8517e-06  0:06:11 1711

 turbulent viscosity limited to viscosity ratio of 1.000000e+05 in 17 cells 
   290  5.4576e-02  9.9099e-07  6.2364e-06  4.4652e-06  7.3603e-06  0:04:56 1710

 turbulent viscosity limited to viscosity ratio of 1.000000e+05 in 17 cells 
   291  5.9600e-02  9.9834e-07  6.2672e-06  4.4510e-06  7.6962e-06  0:03:57 1709

 turbulent viscosity limited to viscosity ratio of 1.000000e+05 in 14 cells 
   292  6.3939e-02  1.0056e-06  6.2865e-06  4.4355e-06  9.4427e-06  0:08:51 1708

 turbulent viscosity limited to viscosity ratio of 1.000000e+05 in 11 cells 
   293  6.8633e-02  1.0138e-06  6.3212e-06  4.4196e-06  7.0038e-06  0:07:05 1707

 turbulent viscosity limited to viscosity ratio of 1.000000e+05 in 11 cells 
   294  8.9925e-02  1.0356e-06  6.3951e-06  4.4074e-06  7.4027e-06  0:05:40 1706

 turbulent viscosity limited to viscosity ratio of 1.000000e+05 in 10 cells 
   295  6.1113e-02  1.1056e-06  6.3164e-06  4.3884e-06  7.9041e-06  0:04:31 1705

 turbulent viscosity limited to viscosity ratio of 1.000000e+05 in 10 cells 
   296  6.1122e-02  1.0726e-06  6.3289e-06  4.3733e-06  9.1467e-06  0:03:37 1704

 turbulent viscosity limited to viscosity ratio of 1.000000e+05 in 11 cells 
   297  6.8649e-02  1.0383e-06  6.3246e-06  4.3626e-06  7.9987e-06  0:02:54 1703

 turbulent viscosity limited to viscosity ratio of 1.000000e+05 in 9 cells 

  iter  continuity  x-velocity  y-velocity           k       omega     time/iter
   298  5.3750e-02  1.0577e-06  6.2576e-06  4.3359e-06  6.3583e-06  0:07:59 1702

 turbulent viscosity limited to viscosity ratio of 1.000000e+05 in 8 cells 
   299  5.1908e-02  1.0116e-06  6.0981e-06  4.3157e-06  6.9052e-06  0:06:23 1701

 turbulent viscosity limited to viscosity ratio of 1.000000e+05 in 9 cells 
   300  5.2510e-02  9.3139e-07  6.0407e-06  4.2970e-06  5.6505e-06  0:05:06 1700

 turbulent viscosity limited to viscosity ratio of 1.000000e+05 in 7 cells 
   301  5.1044e-02  8.6642e-07  5.9773e-06  4.2779e-06  5.7358e-06  0:04:05 1699

 turbulent viscosity limited to viscosity ratio of 1.000000e+05 in 9 cells 
   302  4.8456e-02  8.7540e-07  5.9254e-06  4.2629e-06  6.1533e-06  0:03:16 1698

 turbulent viscosity limited to viscosity ratio of 1.000000e+05 in 6 cells 
   303  4.3492e-02  8.1962e-07  5.8386e-06  4.2441e-06  6.5258e-06  0:02:37 1697

 turbulent viscosity limited to viscosity ratio of 1.000000e+05 in 4 cells 
   304  3.9960e-02  7.7513e-07  5.7255e-06  4.2266e-06  6.0998e-06  0:07:44 1696

 turbulent viscosity limited to viscosity ratio of 1.000000e+05 in 4 cells 
   305  3.9462e-02  7.4527e-07  5.6575e-06  4.2111e-06  7.0295e-06  0:06:11 1695

 turbulent viscosity limited to viscosity ratio of 1.000000e+05 in 4 cells 
   306  3.7862e-02  7.1903e-07  5.6106e-06  4.1964e-06  7.7486e-06  0:04:57 1694

 turbulent viscosity limited to viscosity ratio of 1.000000e+05 in 2 cells 
   307  3.5199e-02  7.0727e-07  5.5749e-06  4.1824e-06  8.7491e-06  0:03:57 1693

 turbulent viscosity limited to viscosity ratio of 1.000000e+05 in 1 cells 
   308  3.1727e-02  6.9365e-07  5.5391e-06  4.1678e-06  8.0562e-06  0:03:10 1692

 turbulent viscosity limited to viscosity ratio of 1.000000e+05 in 1 cells 

  iter  continuity  x-velocity  y-velocity           k       omega     time/iter
   309  2.6931e-02  6.7425e-07  5.4997e-06  4.1541e-06  8.6224e-06  0:02:32 1691
   310  2.2157e-02  6.6204e-07  5.4617e-06  4.1405e-06  8.4603e-06  0:07:39 1690
   311  1.8856e-02  6.4967e-07  5.4349e-06  4.1273e-06  8.1241e-06  0:06:07 1689
   312  1.6361e-02  6.3648e-07  5.4092e-06  4.1144e-06  7.6885e-06  0:04:54 1688

 turbulent viscosity limited to viscosity ratio of 1.000000e+05 in 1 cells 
   313  1.4652e-02  6.2859e-07  5.3838e-06  4.1019e-06  7.8479e-06  0:03:55 1687

 turbulent viscosity limited to viscosity ratio of 1.000000e+05 in 1 cells 
   314  1.3058e-02  6.1814e-07  5.3589e-06  4.0891e-06  7.2450e-06  0:03:08 1686

 turbulent viscosity limited to viscosity ratio of 1.000000e+05 in 1 cells 
   315  1.1198e-02  6.0635e-07  5.3330e-06  4.0761e-06  6.5521e-06  0:02:30 1685
   316  1.0157e-02  5.9921e-07  5.3050e-06  4.0635e-06  6.0486e-06  0:07:37 1684
   317  9.1151e-03  5.9447e-07  5.2810e-06  4.0511e-06  5.5261e-06  0:06:05 1683
   318  8.6970e-03  5.9032e-07  5.2566e-06  4.0387e-06  5.9052e-06  0:04:52 1682
   319  7.7677e-03  5.8606e-07  5.2323e-06  4.0265e-06  7.5552e-06  0:03:53 1681

  iter  continuity  x-velocity  y-velocity           k       omega     time/iter
   320  6.9771e-03  5.8197e-07  5.2075e-06  4.0145e-06  8.2221e-06  0:03:07 1680
   321  6.6291e-03  5.7747e-07  5.1819e-06  4.0029e-06  7.3824e-06  0:02:29 1679
   322  6.0925e-03  5.7439e-07  5.1589e-06  3.9916e-06  6.1302e-06  0:07:35 1678
   323  5.3791e-03  5.7098e-07  5.1359e-06  3.9808e-06  5.4327e-06  0:06:04 1677

 turbulent viscosity limited to viscosity ratio of 1.000000e+05 in 1 cells 
   324  5.0867e-03  5.6765e-07  5.1124e-06  3.9702e-06  5.0732e-06  0:04:51 1676

 turbulent viscosity limited to viscosity ratio of 1.000000e+05 in 1 cells 
   325  4.6149e-03  5.6390e-07  5.0888e-06  3.9599e-06  4.8949e-06  0:03:52 1675

 turbulent viscosity limited to viscosity ratio of 1.000000e+05 in 1 cells 
   326  4.0817e-03  5.5906e-07  5.0666e-06  3.9496e-06  4.8269e-06  0:03:06 1674

 turbulent viscosity limited to viscosity ratio of 1.000000e+05 in 1 cells 
   327  3.7943e-03  5.5443e-07  5.0444e-06  3.9395e-06  4.5318e-06  0:08:03 1673

 turbulent viscosity limited to viscosity ratio of 1.000000e+05 in 1 cells 
   328  3.5461e-03  5.5010e-07  5.0227e-06  3.9294e-06  4.4587e-06  0:06:26 1672

 turbulent viscosity limited to viscosity ratio of 1.000000e+05 in 1 cells 
   329  3.3054e-03  5.4584e-07  5.0011e-06  3.9194e-06  4.2394e-06  0:05:09 1671

 turbulent viscosity limited to viscosity ratio of 1.000000e+05 in 2 cells 
   330  3.1571e-03  5.4186e-07  4.9797e-06  3.9094e-06  4.1875e-06  0:04:07 1670

 turbulent viscosity limited to viscosity ratio of 1.000000e+05 in 1 cells 

  iter  continuity  x-velocity  y-velocity           k       omega     time/iter
   331  2.9380e-03  5.3786e-07  4.9587e-06  3.8995e-06  4.0283e-06  0:03:17 1669

 turbulent viscosity limited to viscosity ratio of 1.000000e+05 in 1 cells 
   332  2.7581e-03  5.3394e-07  4.9378e-06  3.8897e-06  4.0328e-06  0:02:38 1668

 turbulent viscosity limited to viscosity ratio of 1.000000e+05 in 1 cells 
   333  2.6170e-03  5.3029e-07  4.9171e-06  3.8799e-06  3.9261e-06  0:07:40 1667

 turbulent viscosity limited to viscosity ratio of 1.000000e+05 in 1 cells 
   334  2.4815e-03  5.2672e-07  4.8964e-06  3.8702e-06  3.9623e-06  0:06:07 1666
   335  2.3498e-03  5.2328e-07  4.8757e-06  3.8605e-06  3.8608e-06  0:04:54 1665
   336  2.2342e-03  5.1995e-07  4.8553e-06  3.8510e-06  3.8819e-06  0:03:55 1664
   337  2.1299e-03  5.1681e-07  4.8351e-06  3.8415e-06  3.8477e-06  0:08:40 1663
   338  2.0043e-03  5.1377e-07  4.8150e-06  3.8320e-06  3.8431e-06  0:06:56 1662
   339  1.8864e-03  5.1079e-07  4.7951e-06  3.8227e-06  3.8379e-06  0:05:33 1661
   340  1.7795e-03  5.0795e-07  4.7753e-06  3.8134e-06  3.8316e-06  0:04:26 1660
   341  1.6916e-03  5.0517e-07  4.7556e-06  3.8041e-06  3.8276e-06  0:03:33 1659

  iter  continuity  x-velocity  y-velocity           k       omega     time/iter
   342  1.6117e-03  5.0245e-07  4.7361e-06  3.7949e-06  3.8331e-06  0:02:50 1658
   343  1.5398e-03  4.9976e-07  4.7167e-06  3.7858e-06  3.7959e-06  0:07:47 1657
   344  1.4716e-03  4.9711e-07  4.6975e-06  3.7767e-06  3.7272e-06  0:06:14 1656
   345  1.4120e-03  4.9444e-07  4.6783e-06  3.7677e-06  3.6755e-06  0:04:59 1655
   346  1.3626e-03  4.9184e-07  4.6593e-06  3.7587e-06  3.6258e-06  0:03:59 1654
   347  1.3278e-03  4.8932e-07  4.6403e-06  3.7497e-06  3.5768e-06  0:03:11 1653
   348  1.2938e-03  4.8687e-07  4.6216e-06  3.7408e-06  3.5459e-06  0:02:33 1652
   349  1.2632e-03  4.8441e-07  4.6029e-06  3.7320e-06  3.5178e-06  0:07:32 1651
   350  1.2414e-03  4.8199e-07  4.5844e-06  3.7232e-06  3.4950e-06  0:06:02 1650
   351  1.2183e-03  4.7957e-07  4.5659e-06  3.7144e-06  3.4763e-06  0:04:49 1649
   352  1.2049e-03  4.7723e-07  4.5476e-06  3.7057e-06  3.4642e-06  0:03:51 1648

  iter  continuity  x-velocity  y-velocity           k       omega     time/iter
   353  1.1904e-03  4.7492e-07  4.5294e-06  3.6971e-06  3.4545e-06  0:03:05 1647
   354  1.1665e-03  4.7258e-07  4.5113e-06  3.6885e-06  3.4503e-06  0:02:28 1646
   355  1.1510e-03  4.7030e-07  4.4934e-06  3.6799e-06  3.4501e-06  0:07:27 1645
   356  1.1374e-03  4.6803e-07  4.4754e-06  3.6714e-06  3.4518e-06  0:05:57 1644
   357  1.1167e-03  4.6579e-07  4.4576e-06  3.6630e-06  3.4592e-06  0:04:46 1643
   358  1.1040e-03  4.6360e-07  4.4399e-06  3.6546e-06  3.4694e-06  0:03:49 1642
   359  1.0769e-03  4.6144e-07  4.4223e-06  3.6463e-06  3.4801e-06  0:03:03 1641
   360  1.0595e-03  4.5930e-07  4.4048e-06  3.6380e-06  3.4836e-06  0:02:26 1640
   361  1.0369e-03  4.5720e-07  4.3875e-06  3.6297e-06  3.4514e-06  0:07:25 1639
   362  1.0256e-03  4.5510e-07  4.3701e-06  3.6215e-06  3.4508e-06  0:05:55 1638
   363  1.0086e-03  4.5303e-07  4.3529e-06  3.6133e-06  3.4141e-06  0:04:44 1637

  iter  continuity  x-velocity  y-velocity           k       omega     time/iter
   364  9.9168e-04  4.5101e-07  4.3358e-06  3.6052e-06  3.3315e-06  0:03:47 1636
   365  9.7341e-04  4.4900e-07  4.3187e-06  3.5971e-06  3.2225e-06  0:03:02 1635
   366  9.5712e-04  4.4700e-07  4.3018e-06  3.5891e-06  3.1093e-06  0:02:25 1634
   367  9.4754e-04  4.4504e-07  4.2849e-06  3.5810e-06  3.0238e-06  0:07:23 1633
   368  9.3556e-04  4.4308e-07  4.2681e-06  3.5731e-06  2.9736e-06  0:05:54 1632
   369  9.2565e-04  4.4116e-07  4.2514e-06  3.5652e-06  2.9299e-06  0:04:43 1631
   370  9.1532e-04  4.3924e-07  4.2348e-06  3.5573e-06  2.8870e-06  0:03:46 1630
   371  8.9996e-04  4.3736e-07  4.2182e-06  3.5494e-06  2.8471e-06  0:03:01 1629
   372  8.8553e-04  4.3548e-07  4.2018e-06  3.5416e-06  2.8120e-06  0:02:25 1628
   373  8.6955e-04  4.3363e-07  4.1854e-06  3.5338e-06  2.7834e-06  0:07:21 1627
   374  8.5456e-04  4.3178e-07  4.1690e-06  3.5261e-06  2.7602e-06  0:05:53 1626

  iter  continuity  x-velocity  y-velocity           k       omega     time/iter
   375  8.4288e-04  4.2998e-07  4.1528e-06  3.5184e-06  2.7408e-06  0:04:42 1625
   376  8.3581e-04  4.2820e-07  4.1366e-06  3.5108e-06  2.7243e-06  0:03:45 1624
   377  8.2672e-04  4.2644e-07  4.1206e-06  3.5032e-06  2.7095e-06  0:03:00 1623
   378  8.2515e-04  4.2470e-07  4.1046e-06  3.4956e-06  2.6969e-06  0:02:24 1622
   379  8.2815e-04  4.2298e-07  4.0888e-06  3.4881e-06  2.6848e-06  0:07:19 1621
   380  8.2758e-04  4.2127e-07  4.0730e-06  3.4806e-06  2.6748e-06  0:05:51 1620
   381  8.2797e-04  4.1957e-07  4.0573e-06  3.4732e-06  2.6654e-06  0:04:41 1619

 turbulent viscosity limited to viscosity ratio of 1.000000e+05 in 1 cells 
   382  8.2483e-04  4.1787e-07  4.0416e-06  3.4658e-06  2.6573e-06  0:03:45 1618

 turbulent viscosity limited to viscosity ratio of 1.000000e+05 in 1 cells 
   383  8.2066e-04  4.1618e-07  4.0260e-06  3.4584e-06  2.6495e-06  0:08:23 1617

 turbulent viscosity limited to viscosity ratio of 1.000000e+05 in 1 cells 
   384  8.1342e-04  4.1451e-07  4.0104e-06  3.4511e-06  2.6427e-06  0:06:42 1616

 turbulent viscosity limited to viscosity ratio of 1.000000e+05 in 1 cells 
   385  8.0640e-04  4.1285e-07  3.9950e-06  3.4438e-06  2.6358e-06  0:05:21 1615

 turbulent viscosity limited to viscosity ratio of 1.000000e+05 in 1 cells 

  iter  continuity  x-velocity  y-velocity           k       omega     time/iter
   386  8.0607e-04  4.1121e-07  3.9795e-06  3.4365e-06  2.6298e-06  0:04:17 1614

 turbulent viscosity limited to viscosity ratio of 1.000000e+05 in 1 cells 
   387  8.1144e-04  4.0959e-07  3.9642e-06  3.4293e-06  2.6244e-06  0:03:25 1613

 turbulent viscosity limited to viscosity ratio of 1.000000e+05 in 1 cells 
   388  8.1735e-04  4.0798e-07  3.9489e-06  3.4221e-06  2.6195e-06  0:02:44 1612

 turbulent viscosity limited to viscosity ratio of 1.000000e+05 in 1 cells 
   389  8.2239e-04  4.0637e-07  3.9337e-06  3.4150e-06  2.6152e-06  0:07:34 1611

 turbulent viscosity limited to viscosity ratio of 1.000000e+05 in 1 cells 
   390  8.2279e-04  4.0477e-07  3.9186e-06  3.4079e-06  2.6108e-06  0:06:03 1610

 turbulent viscosity limited to viscosity ratio of 1.000000e+05 in 1 cells 
   391  8.2199e-04  4.0319e-07  3.9036e-06  3.4008e-06  2.6065e-06  0:04:50 1609

 turbulent viscosity limited to viscosity ratio of 1.000000e+05 in 1 cells 
   392  8.1473e-04  4.0161e-07  3.8886e-06  3.3937e-06  2.6022e-06  0:03:52 1608
   393  8.0339e-04  4.0001e-07  3.8737e-06  3.3867e-06  2.5984e-06  0:03:05 1607
   394  7.9602e-04  3.9845e-07  3.8588e-06  3.3798e-06  2.5947e-06  0:02:28 1606
   395  7.8275e-04  3.9690e-07  3.8441e-06  3.3729e-06  2.5910e-06  0:07:19 1605
   396  7.7807e-04  3.9537e-07  3.8294e-06  3.3660e-06  2.5872e-06  0:05:51 1604

  iter  continuity  x-velocity  y-velocity           k       omega     time/iter
   397  7.7649e-04  3.9385e-07  3.8148e-06  3.3591e-06  2.5847e-06  0:04:41 1603
   398  7.7268e-04  3.9236e-07  3.8003e-06  3.3523e-06  2.5835e-06  0:03:45 1602
   399  7.6850e-04  3.9082e-07  3.7858e-06  3.3455e-06  2.5857e-06  0:03:00 1601
   400  7.6387e-04  3.8927e-07  3.7710e-06  3.3387e-06  2.5934e-06  0:02:24 1600
   401  7.6417e-04  3.8796e-07  3.7569e-06  3.3320e-06  2.6144e-06  0:07:15 1599
   402  7.6448e-04  3.8644e-07  3.7427e-06  3.3253e-06  2.6239e-06  0:05:47 1598
   403  7.4973e-04  3.8478e-07  3.7283e-06  3.3187e-06  2.6002e-06  0:04:38 1597
   404  7.5160e-04  3.8348e-07  3.7143e-06  3.3120e-06  2.5831e-06  0:03:42 1596
   405  7.4860e-04  3.8202e-07  3.7003e-06  3.3054e-06  2.5709e-06  0:02:58 1595
   406  7.4573e-04  3.8052e-07  3.6863e-06  3.2989e-06  2.5613e-06  0:02:22 1594
   407  7.3066e-04  3.7899e-07  3.6722e-06  3.2923e-06  2.5540e-06  0:07:12 1593

  iter  continuity  x-velocity  y-velocity           k       omega     time/iter
   408  7.2981e-04  3.7772e-07  3.6582e-06  3.2858e-06  2.5484e-06  0:05:45 1592
   409  7.2333e-04  3.7632e-07  3.6445e-06  3.2794e-06  2.5441e-06  0:04:36 1591
   410  7.2272e-04  3.7485e-07  3.6308e-06  3.2729e-06  2.5410e-06  0:03:41 1590
   411  7.1386e-04  3.7333e-07  3.6169e-06  3.2665e-06  2.5386e-06  0:02:57 1589
   412  7.1625e-04  3.7209e-07  3.6033e-06  3.2602e-06  2.5372e-06  0:02:21 1588
   413  7.1392e-04  3.7070e-07  3.5898e-06  3.2538e-06  2.5364e-06  0:07:10 1587
   414  7.1142e-04  3.6924e-07  3.5763e-06  3.2475e-06  2.5368e-06  0:05:44 1586
   415  7.0658e-04  3.6782e-07  3.5629e-06  3.2413e-06  2.5384e-06  0:04:35 1585
   416  7.0278e-04  3.6642e-07  3.5494e-06  3.2350e-06  2.5408e-06  0:03:40 1584
   417  6.9335e-04  3.6499e-07  3.5358e-06  3.2288e-06  2.5423e-06  0:02:56 1583
   418  6.9292e-04  3.6380e-07  3.5226e-06  3.2226e-06  2.5423e-06  0:02:21 1582

  iter  continuity  x-velocity  y-velocity           k       omega     time/iter
   419  6.9393e-04  3.6241e-07  3.5095e-06  3.2164e-06  2.5458e-06  0:07:09 1581
   420  6.9551e-04  3.6100e-07  3.4964e-06  3.2103e-06  2.5411e-06  0:05:43 1580
   421  6.8516e-04  3.5957e-07  3.4831e-06  3.2042e-06  2.5414e-06  0:04:34 1579
   422  6.8787e-04  3.5841e-07  3.4702e-06  3.1982e-06  2.5458e-06  0:03:39 1578
   423  6.9636e-04  3.5710e-07  3.4573e-06  3.1921e-06  2.5256e-06  0:02:55 1577
   424  6.9944e-04  3.5574e-07  3.4445e-06  3.1861e-06  2.4583e-06  0:02:20 1576
   425  6.9172e-04  3.5435e-07  3.4315e-06  3.1801e-06  2.3860e-06  0:07:07 1575
   426  6.9345e-04  3.5318e-07  3.4187e-06  3.1742e-06  2.3176e-06  0:05:41 1574
   427  6.8685e-04  3.5190e-07  3.4060e-06  3.1682e-06  2.2631e-06  0:04:33 1573

 turbulent viscosity limited to viscosity ratio of 1.000000e+05 in 1 cells 
   428  6.7987e-04  3.5051e-07  3.3932e-06  3.1623e-06  2.2447e-06  0:03:38 1572

 turbulent viscosity limited to viscosity ratio of 1.000000e+05 in 1 cells 
   429  6.8193e-04  3.4934e-07  3.3806e-06  3.1564e-06  2.2235e-06  0:08:09 1571

 turbulent viscosity limited to viscosity ratio of 1.000000e+05 in 1 cells 

  iter  continuity  x-velocity  y-velocity           k       omega     time/iter
   430  6.8048e-04  3.4808e-07  3.3682e-06  3.1506e-06  2.2013e-06  0:06:31 1570

 turbulent viscosity limited to viscosity ratio of 1.000000e+05 in 1 cells 
   431  6.6969e-04  3.4673e-07  3.3555e-06  3.1448e-06  2.1812e-06  0:05:12 1569

 turbulent viscosity limited to viscosity ratio of 1.000000e+05 in 1 cells 
   432  6.6720e-04  3.4561e-07  3.3431e-06  3.1389e-06  2.1605e-06  0:04:10 1568

 turbulent viscosity limited to viscosity ratio of 1.000000e+05 in 1 cells 
   433  6.6308e-04  3.4440e-07  3.3308e-06  3.1332e-06  2.1439e-06  0:03:20 1567

 turbulent viscosity limited to viscosity ratio of 1.000000e+05 in 1 cells 
   434  6.5010e-04  3.4309e-07  3.3183e-06  3.1274e-06  2.1310e-06  0:02:40 1566

 turbulent viscosity limited to viscosity ratio of 1.000000e+05 in 1 cells 
   435  6.4739e-04  3.4202e-07  3.3060e-06  3.1217e-06  2.1211e-06  0:07:21 1565

 turbulent viscosity limited to viscosity ratio of 1.000000e+05 in 1 cells 
   436  6.4247e-04  3.4083e-07  3.2939e-06  3.1160e-06  2.1122e-06  0:05:52 1564

 turbulent viscosity limited to viscosity ratio of 1.000000e+05 in 1 cells 
   437  6.3915e-04  3.3963e-07  3.2817e-06  3.1103e-06  2.1053e-06  0:04:42 1563
   438  6.3643e-04  3.3845e-07  3.2696e-06  3.1047e-06  2.0990e-06  0:03:45 1562
   439  6.3359e-04  3.3731e-07  3.2575e-06  3.0991e-06  2.0943e-06  0:03:00 1561
   440  6.3151e-04  3.3619e-07  3.2454e-06  3.0935e-06  2.0898e-06  0:02:24 1560

  iter  continuity  x-velocity  y-velocity           k       omega     time/iter
   441  6.3149e-04  3.3506e-07  3.2334e-06  3.0879e-06  2.0861e-06  0:07:07 1559
   442  6.3089e-04  3.3394e-07  3.2215e-06  3.0824e-06  2.0832e-06  0:05:41 1558
   443  6.2616e-04  3.3282e-07  3.2097e-06  3.0769e-06  2.0811e-06  0:04:33 1557
   444  6.2484e-04  3.3170e-07  3.1975e-06  3.0714e-06  2.0814e-06  0:03:38 1556
   445  6.1542e-04  3.3074e-07  3.1860e-06  3.0659e-06  2.0846e-06  0:02:54 1555
   446  6.1555e-04  3.2961e-07  3.1745e-06  3.0605e-06  2.0945e-06  0:02:19 1554
   447  6.1213e-04  3.2839e-07  3.1626e-06  3.0551e-06  2.1173e-06  0:07:02 1553
   448  6.0879e-04  3.2746e-07  3.1512e-06  3.0497e-06  2.1216e-06  0:05:37 1552
   449  6.1133e-04  3.2640e-07  3.1398e-06  3.0443e-06  2.0987e-06  0:04:30 1551
   450  6.0775e-04  3.2527e-07  3.1282e-06  3.0390e-06  2.0826e-06  0:03:36 1550
   451  6.1457e-04  3.2436e-07  3.1169e-06  3.0336e-06  2.0704e-06  0:02:52 1549

  iter  continuity  x-velocity  y-velocity           k       omega     time/iter
   452  6.0749e-04  3.2326e-07  3.1055e-06  3.0283e-06  2.0611e-06  0:07:27 1548
[...]
  1829  4.1110e-05  6.6540e-08  2.3414e-07  1.4751e-06  2.5032e-07  0:00:47  171
  1830  4.0046e-05  6.6475e-08  2.3392e-07  1.4749e-06  2.4925e-07  0:00:37  170
  1831  4.1171e-05  6.6469e-08  2.3368e-07  1.4746e-06  2.4875e-07  0:00:30  169
  1832  4.0105e-05  6.6404e-08  2.3345e-07  1.4744e-06  2.4864e-07  0:00:23  168
  1833  4.1238e-05  6.6399e-08  2.3322e-07  1.4741e-06  2.4860e-07  0:00:19  167
  1834  4.0165e-05  6.6334e-08  2.3299e-07  1.4739e-06  2.4747e-07  0:00:15  166
  1835  4.1309e-05  6.6328e-08  2.3275e-07  1.4736e-06  2.4741e-07  0:00:45  165
  1836  4.0249e-05  6.6264e-08  2.3253e-07  1.4734e-06  2.4714e-07  0:00:36  164
  1837  4.1384e-05  6.6258e-08  2.3229e-07  1.4732e-06  2.4669e-07  0:00:28  163

  iter  continuity  x-velocity  y-velocity           k       omega     time/iter
  1838  4.0302e-05  6.6193e-08  2.3207e-07  1.4729e-06  2.4661e-07  0:00:23  162
  1839  4.1427e-05  6.6188e-08  2.3184e-07  1.4727e-06  2.4637e-07  0:00:18  161
  1840  4.0283e-05  6.6124e-08  2.3161e-07  1.4724e-06  2.4644e-07  0:00:46  160
  1841  4.1401e-05  6.6118e-08  2.3138e-07  1.4722e-06  2.4651e-07  0:00:37  159
  1842  4.0302e-05  6.6054e-08  2.3116e-07  1.4719e-06  2.4620e-07  0:00:29  158
  1843  4.1437e-05  6.6048e-08  2.3092e-07  1.4717e-06  2.4523e-07  0:00:23  157
  1844  4.0343e-05  6.5984e-08  2.3070e-07  1.4714e-06  2.4397e-07  0:00:18  156
  1845  4.1497e-05  6.5979e-08  2.3047e-07  1.4712e-06  2.4334e-07  0:00:15  155
  1846  4.0394e-05  6.5915e-08  2.3025e-07  1.4710e-06  2.4279e-07  0:00:42  154
  1847  4.1550e-05  6.5909e-08  2.3001e-07  1.4707e-06  2.4312e-07  0:00:34  153
  1848  4.0449e-05  6.5845e-08  2.2979e-07  1.4705e-06  2.4370e-07  0:00:27  152

  iter  continuity  x-velocity  y-velocity           k       omega     time/iter
  1849  4.1594e-05  6.5840e-08  2.2956e-07  1.4702e-06  2.4403e-07  0:00:21  151
  1850  4.0485e-05  6.5776e-08  2.2934e-07  1.4700e-06  2.4329e-07  0:00:17  150
  1851  4.1665e-05  6.5771e-08  2.2911e-07  1.4697e-06  2.4327e-07  0:00:13  149
  1852  4.0580e-05  6.5707e-08  2.2889e-07  1.4695e-06  2.4454e-07  0:00:40  148
  1853  4.1675e-05  6.5702e-08  2.2866e-07  1.4693e-06  2.4573e-07  0:00:32  147
  1854  4.0412e-05  6.5638e-08  2.2844e-07  1.4690e-06  2.4640e-07  0:00:25  146
  1855  4.1434e-05  6.5633e-08  2.2822e-07  1.4688e-06  2.4656e-07  0:00:20  145
  1856  4.0262e-05  6.5569e-08  2.2800e-07  1.4685e-06  2.4712e-07  0:00:45  144
  1857  4.1379e-05  6.5564e-08  2.2777e-07  1.4683e-06  2.4867e-07  0:00:36  143
  1858  4.0176e-05  6.5500e-08  2.2755e-07  1.4680e-06  2.4921e-07  0:00:28  142
  1859  4.1291e-05  6.5495e-08  2.2732e-07  1.4678e-06  2.4865e-07  0:00:22  141

  iter  continuity  x-velocity  y-velocity           k       omega     time/iter
  1860  4.0099e-05  6.5432e-08  2.2711e-07  1.4676e-06  2.4749e-07  0:00:18  140
  1861  4.1215e-05  6.5427e-08  2.2688e-07  1.4673e-06  2.4688e-07  0:00:14  139
  1862  4.0034e-05  6.5363e-08  2.2666e-07  1.4671e-06  2.4647e-07  0:00:39  138
  1863  4.1171e-05  6.5358e-08  2.2644e-07  1.4668e-06  2.4680e-07  0:00:31  137
  1864  3.9972e-05  6.5295e-08  2.2622e-07  1.4666e-06  2.4542e-07  0:00:25  136
  1865  4.1141e-05  6.5290e-08  2.2600e-07  1.4664e-06  2.4528e-07  0:00:19  135
  1866  3.9912e-05  6.5227e-08  2.2578e-07  1.4661e-06  2.4514e-07  0:00:15  134
  1867  4.1100e-05  6.5222e-08  2.2556e-07  1.4659e-06  2.4430e-07  0:00:12  133
  1868  3.9881e-05  6.5159e-08  2.2534e-07  1.4656e-06  2.4423e-07  0:00:36  132
  1869  4.1044e-05  6.5154e-08  2.2512e-07  1.4654e-06  2.4407e-07  0:00:29  131
  1870  3.9852e-05  6.5091e-08  2.2491e-07  1.4652e-06  2.4389e-07  0:00:23  130

  iter  continuity  x-velocity  y-velocity           k       omega     time/iter
  1871  4.1070e-05  6.5086e-08  2.2468e-07  1.4649e-06  2.4396e-07  0:00:18  129
  1872  3.9865e-05  6.5024e-08  2.2447e-07  1.4647e-06  2.4374e-07  0:00:14  128
  1873  4.1074e-05  6.5019e-08  2.2425e-07  1.4644e-06  2.4309e-07  0:00:11  127
  1874  3.9873e-05  6.4956e-08  2.2403e-07  1.4642e-06  2.4165e-07  0:00:34  126
  1875  4.1087e-05  6.4951e-08  2.2381e-07  1.4640e-06  2.4086e-07  0:00:27  125
  1876  3.9891e-05  6.4889e-08  2.2360e-07  1.4637e-06  2.4030e-07  0:00:22  124
  1877  4.1105e-05  6.4884e-08  2.2338e-07  1.4635e-06  2.4043e-07  0:00:17  123
  1878  3.9932e-05  6.4822e-08  2.2317e-07  1.4633e-06  2.4091e-07  0:00:14  122
  1879  4.1108e-05  6.4817e-08  2.2295e-07  1.4630e-06  2.4143e-07  0:00:11  121
  1880  3.9960e-05  6.4755e-08  2.2274e-07  1.4628e-06  2.4082e-07  0:00:33  120
  1881  4.1163e-05  6.4750e-08  2.2252e-07  1.4625e-06  2.4037e-07  0:00:26  119

  iter  continuity  x-velocity  y-velocity           k       omega     time/iter
  1882  3.9994e-05  6.4688e-08  2.2231e-07  1.4623e-06  2.4164e-07  0:00:20  118
  1883  4.1156e-05  6.4683e-08  2.2209e-07  1.4621e-06  2.4287e-07  0:00:16  117
  1884  3.9972e-05  6.4621e-08  2.2188e-07  1.4618e-06  2.4363e-07  0:00:13  116
  1885  4.1113e-05  6.4617e-08  2.2166e-07  1.4616e-06  2.4396e-07  0:00:10  115
  1886  3.9935e-05  6.4555e-08  2.2145e-07  1.4614e-06  2.4394e-07  0:00:31  114
  1887  4.1054e-05  6.4550e-08  2.2123e-07  1.4611e-06  2.4548e-07  0:00:25  113
  1888  3.9882e-05  6.4489e-08  2.2102e-07  1.4609e-06  2.4636e-07  0:00:19  112
  1889  4.1007e-05  6.4484e-08  2.2081e-07  1.4606e-06  2.4600e-07  0:00:15  111
  1890  3.9852e-05  6.4422e-08  2.2060e-07  1.4604e-06  2.4485e-07  0:00:12  110
  1891  4.0955e-05  6.4417e-08  2.2038e-07  1.4602e-06  2.4411e-07  0:00:10  109
  1892  3.9819e-05  6.4356e-08  2.2018e-07  1.4599e-06  2.4350e-07  0:00:29  108

  iter  continuity  x-velocity  y-velocity           k       omega     time/iter
  1893  4.0907e-05  6.4351e-08  2.1996e-07  1.4597e-06  2.4379e-07  0:00:23  107
  1894  3.9793e-05  6.4290e-08  2.1975e-07  1.4595e-06  2.4290e-07  0:00:18  106
  1895  4.0894e-05  6.4285e-08  2.1954e-07  1.4592e-06  2.4233e-07  0:00:15  105
  1896  3.9803e-05  6.4224e-08  2.1933e-07  1.4590e-06  2.4211e-07  0:00:12  104
  1897  4.0930e-05  6.4219e-08  2.1912e-07  1.4588e-06  2.4162e-07  0:00:09  103
  1898  3.9815e-05  6.4159e-08  2.1891e-07  1.4585e-06  2.4147e-07  0:00:28  102
  1899  4.0935e-05  6.4154e-08  2.1870e-07  1.4583e-06  2.4142e-07  0:00:22  101
  1900  3.9826e-05  6.4093e-08  2.1850e-07  1.4581e-06  2.4120e-07  0:00:17  100
  1901  4.0958e-05  6.4088e-08  2.1828e-07  1.4578e-06  2.4136e-07  0:00:14   99
  1902  3.9886e-05  6.4028e-08  2.1808e-07  1.4576e-06  2.4123e-07  0:00:30   98
  1903  4.0978e-05  6.4023e-08  2.1786e-07  1.4573e-06  2.4082e-07  0:00:24   97

  iter  continuity  x-velocity  y-velocity           k       omega     time/iter
  1904  3.9899e-05  6.3963e-08  2.1766e-07  1.4571e-06  2.3944e-07  0:00:19   96
  1905  4.0980e-05  6.3957e-08  2.1745e-07  1.4569e-06  2.3851e-07  0:00:15   95
  1906  3.9831e-05  6.3898e-08  2.1725e-07  1.4566e-06  2.3795e-07  0:00:12   94
  1907  4.0858e-05  6.3892e-08  2.1704e-07  1.4564e-06  2.3776e-07  0:00:09   93
  1908  3.9719e-05  6.3832e-08  2.1683e-07  1.4562e-06  2.3817e-07  0:00:26   92
  1909  4.0808e-05  6.3826e-08  2.1662e-07  1.4559e-06  2.3880e-07  0:00:20   91
  1910  3.9678e-05  6.3767e-08  2.1642e-07  1.4557e-06  2.3843e-07  0:00:16   90
  1911  4.0760e-05  6.3761e-08  2.1621e-07  1.4555e-06  2.3779e-07  0:00:13   89
  1912  3.9612e-05  6.3701e-08  2.1601e-07  1.4552e-06  2.3851e-07  0:00:10   88
  1913  4.0694e-05  6.3695e-08  2.1580e-07  1.4550e-06  2.3981e-07  0:00:25   87
  1914  3.9571e-05  6.3636e-08  2.1560e-07  1.4548e-06  2.4066e-07  0:00:20   86

  iter  continuity  x-velocity  y-velocity           k       omega     time/iter
  1915  4.0645e-05  6.3630e-08  2.1539e-07  1.4545e-06  2.4117e-07  0:00:16   85
  1916  3.9520e-05  6.3571e-08  2.1519e-07  1.4543e-06  2.4099e-07  0:00:13   84
  1917  4.0601e-05  6.3566e-08  2.1498e-07  1.4541e-06  2.4236e-07  0:00:10   83
  1918  3.9492e-05  6.3507e-08  2.1479e-07  1.4538e-06  2.4354e-07  0:00:08   82
  1919  4.0572e-05  6.3501e-08  2.1458e-07  1.4536e-06  2.4360e-07  0:00:22   81
  1920  3.9466e-05  6.3442e-08  2.1438e-07  1.4534e-06  2.4259e-07  0:00:18   80
  1921  4.0536e-05  6.3437e-08  2.1417e-07  1.4531e-06  2.4176e-07  0:00:14   79
  1922  3.9438e-05  6.3378e-08  2.1397e-07  1.4529e-06  2.4105e-07  0:00:11   78
  1923  4.0486e-05  6.3372e-08  2.1377e-07  1.4527e-06  2.4112e-07  0:00:09   77
  1924  3.9398e-05  6.3314e-08  2.1357e-07  1.4525e-06  2.4073e-07  0:00:07   76
  1925  4.0448e-05  6.3308e-08  2.1336e-07  1.4522e-06  2.3987e-07  0:00:20   75

  iter  continuity  x-velocity  y-velocity           k       omega     time/iter
  1926  3.9356e-05  6.3250e-08  2.1317e-07  1.4520e-06  2.3965e-07  0:00:16   74
  1927  4.0400e-05  6.3244e-08  2.1296e-07  1.4518e-06  2.3942e-07  0:00:13   73
  1928  3.9319e-05  6.3185e-08  2.1277e-07  1.4515e-06  2.3892e-07  0:00:10   72
  1929  4.0348e-05  6.3180e-08  2.1256e-07  1.4513e-06  2.3897e-07  0:00:08   71
  1930  3.9219e-05  6.3121e-08  2.1237e-07  1.4511e-06  2.3864e-07  0:00:06   70
  1931  4.0299e-05  6.3116e-08  2.1216e-07  1.4508e-06  2.3881e-07  0:00:19   69
  1932  3.9156e-05  6.3058e-08  2.1197e-07  1.4506e-06  2.3873e-07  0:00:15   68
  1933  4.0231e-05  6.3052e-08  2.1176e-07  1.4504e-06  2.3852e-07  0:00:12   67
  1934  3.9109e-05  6.2994e-08  2.1157e-07  1.4502e-06  2.3735e-07  0:00:09   66
  1935  4.0200e-05  6.2988e-08  2.1137e-07  1.4499e-06  2.3622e-07  0:00:07   65
  1936  3.9077e-05  6.2930e-08  2.1117e-07  1.4497e-06  2.3552e-07  0:00:06   64

  iter  continuity  x-velocity  y-velocity           k       omega     time/iter
  1937  4.0113e-05  6.2925e-08  2.1097e-07  1.4495e-06  2.3507e-07  0:00:17   63
  1938  3.8944e-05  6.2867e-08  2.1078e-07  1.4492e-06  2.3539e-07  0:00:13   62
  1939  4.0006e-05  6.2861e-08  2.1057e-07  1.4490e-06  2.3607e-07  0:00:11   61
  1940  3.8835e-05  6.2803e-08  2.1038e-07  1.4488e-06  2.3617e-07  0:00:08   60
  1941  3.9913e-05  6.2798e-08  2.1018e-07  1.4485e-06  2.3554e-07  0:00:07   59
  1942  3.8756e-05  6.2740e-08  2.0999e-07  1.4483e-06  2.3562e-07  0:00:17   58
  1943  3.9852e-05  6.2734e-08  2.0979e-07  1.4481e-06  2.3695e-07  0:00:13   57
  1944  3.8690e-05  6.2677e-08  2.0960e-07  1.4479e-06  2.3798e-07  0:00:10   56
  1945  3.9796e-05  6.2671e-08  2.0940e-07  1.4476e-06  2.3867e-07  0:00:08   55
  1946  3.8639e-05  6.2614e-08  2.0921e-07  1.4474e-06  2.3865e-07  0:00:17   54
  1947  3.9758e-05  6.2608e-08  2.0901e-07  1.4472e-06  2.3942e-07  0:00:13   53

  iter  continuity  x-velocity  y-velocity           k       omega     time/iter
  1948  3.8577e-05  6.2551e-08  2.0882e-07  1.4469e-06  2.4085e-07  0:00:11   52
  1949  3.9699e-05  6.2545e-08  2.0862e-07  1.4467e-06  2.4136e-07  0:00:08   51
  1950  3.8528e-05  6.2488e-08  2.0843e-07  1.4465e-06  2.4067e-07  0:00:07   50
  1951  3.9640e-05  6.2482e-08  2.0823e-07  1.4463e-06  2.3961e-07  0:00:05   49
  1952  3.8479e-05  6.2425e-08  2.0804e-07  1.4460e-06  2.3895e-07  0:00:14   48
  1953  3.9589e-05  6.2419e-08  2.0784e-07  1.4458e-06  2.3873e-07  0:00:11   47
  1954  3.8412e-05  6.2362e-08  2.0765e-07  1.4456e-06  2.3894e-07  0:00:08   46
  1955  3.9517e-05  6.2356e-08  2.0746e-07  1.4454e-06  2.3764e-07  0:00:07   45
  1956  3.8343e-05  6.2300e-08  2.0727e-07  1.4451e-06  2.3749e-07  0:00:05   44
  1957  3.9488e-05  6.2294e-08  2.0707e-07  1.4449e-06  2.3745e-07  0:00:04   43
  1958  3.8330e-05  6.2237e-08  2.0688e-07  1.4447e-06  2.3674e-07  0:00:12   42

  iter  continuity  x-velocity  y-velocity           k       omega     time/iter
  1959  3.9492e-05  6.2232e-08  2.0669e-07  1.4445e-06  2.3680e-07  0:00:09   41
  1960  3.8347e-05  6.2175e-08  2.0650e-07  1.4442e-06  2.3656e-07  0:00:07   40
  1961  3.9466e-05  6.2169e-08  2.0631e-07  1.4440e-06  2.3655e-07  0:00:05   39
  1962  3.8324e-05  6.2113e-08  2.0612e-07  1.4438e-06  2.3658e-07  0:00:04   38
  1963  3.9376e-05  6.2106e-08  2.0592e-07  1.4435e-06  2.3643e-07  0:00:03   37
  1964  3.8202e-05  6.2050e-08  2.0574e-07  1.4433e-06  2.3566e-07  0:00:10   36
  1965  3.9424e-05  6.2046e-08  2.0554e-07  1.4431e-06  2.3435e-07  0:00:08   35
  1966  3.8223e-05  6.1989e-08  2.0536e-07  1.4429e-06  2.3359e-07  0:00:06   34
  1967  3.9422e-05  6.1983e-08  2.0516e-07  1.4426e-06  2.3311e-07  0:00:05   33
  1968  3.8245e-05  6.1927e-08  2.0498e-07  1.4424e-06  2.3325e-07  0:00:04   32
  1969  3.9432e-05  6.1921e-08  2.0479e-07  1.4422e-06  2.3381e-07  0:00:09   31

  iter  continuity  x-velocity  y-velocity           k       omega     time/iter
  1970  3.8234e-05  6.1865e-08  2.0460e-07  1.4420e-06  2.3425e-07  0:00:07   30
  1971  3.9423e-05  6.1859e-08  2.0441e-07  1.4417e-06  2.3364e-07  0:00:05   29
  1972  3.8222e-05  6.1803e-08  2.0423e-07  1.4415e-06  2.3325e-07  0:00:04   28
  1973  3.9416e-05  6.1798e-08  2.0403e-07  1.4413e-06  2.3458e-07  0:00:03   27
  1974  3.8200e-05  6.1742e-08  2.0385e-07  1.4411e-06  2.3577e-07  0:00:02   26
  1975  3.9395e-05  6.1736e-08  2.0366e-07  1.4408e-06  2.3656e-07  0:00:07   25
  1976  3.8191e-05  6.1680e-08  2.0348e-07  1.4406e-06  2.3684e-07  0:00:05   24
  1977  3.9412e-05  6.1675e-08  2.0329e-07  1.4404e-06  2.3710e-07  0:00:04   23
  1978  3.8190e-05  6.1619e-08  2.0310e-07  1.4402e-06  2.3871e-07  0:00:03   22
  1979  3.9408e-05  6.1613e-08  2.0291e-07  1.4400e-06  2.3960e-07  0:00:02   21
  1980  3.8176e-05  6.1557e-08  2.0273e-07  1.4397e-06  2.3922e-07  0:00:02   20

  iter  continuity  x-velocity  y-velocity           k       omega     time/iter
  1981  3.9381e-05  6.1552e-08  2.0254e-07  1.4395e-06  2.3814e-07  0:00:05   19
  1982  3.8141e-05  6.1496e-08  2.0236e-07  1.4393e-06  2.3747e-07  0:00:04   18
  1983  3.9331e-05  6.1491e-08  2.0217e-07  1.4391e-06  2.3693e-07  0:00:03   17
  1984  3.8079e-05  6.1435e-08  2.0199e-07  1.4388e-06  2.3725e-07  0:00:02   16
  1985  3.9242e-05  6.1429e-08  2.0180e-07  1.4386e-06  2.3627e-07  0:00:05   15
  1986  3.7952e-05  6.1373e-08  2.0162e-07  1.4384e-06  2.3575e-07  0:00:03   14
  1987  3.9197e-05  6.1368e-08  2.0143e-07  1.4382e-06  2.3553e-07  0:00:03   13
  1988  3.7844e-05  6.1312e-08  2.0125e-07  1.4379e-06  2.3486e-07  0:00:02   12
  1989  3.9045e-05  6.1307e-08  2.0107e-07  1.4377e-06  2.3483e-07  0:00:01   11
  1990  3.7717e-05  6.1251e-08  2.0089e-07  1.4375e-06  2.3477e-07  0:00:03   10
  1991  3.8889e-05  6.1246e-08  2.0070e-07  1.4373e-06  2.3457e-07  0:00:02    9

  iter  continuity  x-velocity  y-velocity           k       omega     time/iter
  1992  3.7570e-05  6.1190e-08  2.0052e-07  1.4371e-06  2.3470e-07  0:00:02    8
  1993  3.8681e-05  6.1184e-08  2.0033e-07  1.4368e-06  2.3456e-07  0:00:01    7
  1994  3.7434e-05  6.1129e-08  2.0016e-07  1.4366e-06  2.3412e-07  0:00:01    6
  1995  3.8559e-05  6.1123e-08  1.9997e-07  1.4364e-06  2.3271e-07  0:00:00    5
  1996  3.7309e-05  6.1068e-08  1.9979e-07  1.4362e-06  2.3181e-07  0:00:01    4
  1997  3.8405e-05  6.1062e-08  1.9961e-07  1.4360e-06  2.3126e-07  0:00:01    3
  1998  3.7195e-05  6.1007e-08  1.9943e-07  1.4357e-06  2.3117e-07  0:00:00    2
  1999  3.8267e-05  6.1001e-08  1.9924e-07  1.4355e-06  2.3160e-07  0:00:00    1
  2000  3.7082e-05  6.0946e-08  1.9907e-07  1.4353e-06  2.3219e-07  0:00:00    0

> 
adjoint/                parallel/               server/
define/                 parametric-study/       solve/
display/                plot/                   surface/
exit                    preferences/            views/
file/                   print-license-usage
mesh/                   report/

> ;create rakes
surface/rake-surface cv_inlet -0.005 -0.065 -0.005 0.065 1000

> surface/rake-surface cv_outlet 1.005 -0.065 1.005 0.065 1000

> surface/rake-surface cv_top -0.005 0.065 1.005 0.065 1000

> surface/rake-surface cv_bottom -0.005 -0.065 1.005 -0.065 1000

> surface/point-surface free-stream -15 0

> 
adjoint/                parallel/               server/
define/                 parametric-study/       solve/
display/                plot/                   surface/
exit                    preferences/            views/
file/                   print-license-usage
mesh/                   report/

> ;export data
file/export/ascii NP_CVinlet_data cv_inlet () no pressure x-velocity y-velocity dx-velocity-dx dx-velocity-dy dy-velocity-dx dy-velocity-dy q no 
Writing "NP_CVinlet_data"...

Writing information to ascii file ...
Done.

ok


Overwrite confirmations (/file/set-batch-options ...)
are on -- will therefore ignore the following journal
Error: invalid command: ok


> file/export/ascii NP_CVoutlet_data cv_outlet () no pressure x-velocity y-velocity dx-velocity-dx dx-velocity-dy dy-velocity-dx dy-velocity-dy q no 
Writing "NP_CVoutlet_data"...

Writing information to ascii file ...
Done.

ok


Overwrite confirmations (/file/set-batch-options ...)
are on -- will therefore ignore the following journal
Error: invalid command: ok


> file/export/ascii NP_CVtop_data cv_top () no pressure x-velocity y-velocity dx-velocity-dx dx-velocity-dy dy-velocity-dx dy-velocity-dy q no 
Writing "NP_CVtop_data"...

Writing information to ascii file ...
Done.

ok


Overwrite confirmations (/file/set-batch-options ...)
are on -- will therefore ignore the following journal
Error: invalid command: ok


> file/export/ascii NP_CVbottom_data cv_bottom () no pressure x-velocity y-velocity dx-velocity-dx dx-velocity-dy dy-velocity-dx dy-velocity-dy q no 
Writing "NP_CVbottom_data"...

Writing information to ascii file ...
Done.

ok


Overwrite confirmations (/file/set-batch-options ...)
are on -- will therefore ignore the following journal
Error: invalid command: ok


> file/export/ascii air_properties free-stream () no density viscosity-lam q no 
Writing "air_properties"...

Writing information to ascii file ...
Done.

ok


Overwrite confirmations (/file/set-batch-options ...)
are on -- will therefore ignore the following journal
Error: invalid command: ok


> 
adjoint/                parallel/               server/
define/                 parametric-study/       solve/
display/                plot/                   surface/
exit                    preferences/            views/
file/                   print-license-usage
mesh/                   report/

> ;flag file to know when simulation is over
file/export/ascii flag_file free-stream () no pressure q no 
Writing "flag_file"...

Writing information to ascii file ...
Done.

ok


Overwrite confirmations (/file/set-batch-options ...)
are on -- will therefore ignore the following journal
Error: invalid command: ok


> 
adjoint/                parallel/               server/
define/                 parametric-study/       solve/
display/                plot/                   surface/
exit                    preferences/            views/
file/                   print-license-usage
mesh/                   report/

> (cx-gui-do cx-activate-item "Ribbon*Frame1*Frame4(User-Defined)*Table1*Table3(Field Functions)*PushButton1(Custom)")
(cx-gui-do cx-activate-item "Custom Field Function Calculator*PanelButtons*PushButton2(Cancel)")
(cx-gui-do cx-activate-item "Ribbon*Frame1*Frame4(User-Defined)*Table1*Table3(User Defined)*PushButton1(Functions)")
(cx-gui-do cx-activate-item "MenuBar*PopupMenuFunctions*Interpreted...")
(cx-gui-do cx-activate-item "Interpreted UDFs*Table1*PushButton3(Browse)")
(cx-gui-do cx-activate-item "Interpreted UDFs*PanelButtons*PushButton2(Cancel)")
/exit y
(cx-gui-do cx-activate-item "Question*OK")

Posting ANSYS Product Improvement Program performance data 
Done.
Auto-Transcript Stop Time:  19:49:28, 22 Jul 2025 GMT Summer Time 
Total Transcript Time: 1 Day 22 Hour 28 Minute 12 Second.
