Auto-Transcript Start Time:  21:19:12, 20 Jul 2025 GMT Summer Time 
Current Directory: "C:\Users\V.Chepuri\OneDrive - Cranfield University\irp\pablo\re_200000\AOA_0"

              Welcome to ANSYS Fluent 2024 R2

              Copyright 1987-2024 ANSYS, Inc. All Rights Reserved.
              Unauthorized use, distribution or duplication is prohibited.
              This product is subject to U.S. laws governing export and re-export.
              For full Legal Notice, see documentation.

Build Time: May 13 2024 11:17:42 EST  Build Id: 10192  
 
Connected License Server List:	1055@cclic-2.central.cranfield.ac.uk

*********************************************
Info: Your license enables 4-way parallel execution.
For faster simulations, please start the application with the appropriate parallel options.
*********************************************


     --------------------------------------------------------------
     This is an academic version of ANSYS FLUENT. Usage of this product
     license is limited to the terms and conditions specified in your ANSYS
     license form, additional terms section.
     --------------------------------------------------------------
Host spawning Node 0 on machine "37PCL051" (win64).

-------------------------------------------------------------------------------
ID    Hostname  Core  O.S.         PID    Vendor                          
-------------------------------------------------------------------------------
n0    37PCL051  1/28  Windows-x64  9956   Intel(R) Core(TM) i7-14700      
host  37PCL051        Windows-x64  12940  Intel(R) Core(TM) i7-14700      

MPI Option Selected: intel
-------------------------------------------------------------------------------

Cleanup script file is C:\\Users\\V.Chepuri\\OneDrive - Cranfield University\\irp\\pablo\\re_200000\\AOA_0\\cleanup-fluent-37PCL051-12940.bat

Posting ANSYS Product Improvement Program startup data
Done.

> (cx-gui-do cx-activate-item "Key Behavioral Changes*PanelButtons*PushButton1(OK)")
(cx-gui-do cx-activate-item "MenuBar*ReadSubMenu*Case...")
(cx-gui-do cx-set-file-dialog-entries "Select File" '( "template_medium.cas.h5") "CFF Case Files (*.cas.h5 *.msh.h5 *.MSH.h5 )")
Fast-loading "C:\PROGRA~1\ANSYSI~1\v242\fluent\fluent24.2.0\\addons\afd\lib\hdfio.bin"
Done.

37PCL051 has other FLUENT parallel processes running.                       Process affinity not being set.

Reading from 37PCL051:"C:/Users/V.Chepuri/OneDrive - Cranfield University/irp/pablo/re_200000/AOA_0/template_medium.cas.h5" in NODE0 mode ...
  Reading mesh ...
      181070 cells,     4 cell zones ...
          36824 mixed cells,  zone id: 2
         108032 mixed cells,  zone id: 4
          27008 mixed cells,  zone id: 12
           9206 mixed cells,  zone id: 11
      309160 faces,    14 face zones ...
          65137 2D interior faces,  zone id: 3
         181145 2D interior faces,  zone id: 5
             42 2D velocity-inlet faces,  zone id: 6
             38 2D pressure-outlet faces,  zone id: 7
             40 2D velocity-inlet faces,  zone id: 8
            458 2D interior faces,  zone id: 9
            456 2D interior faces,  zone id: 10
            228 2D parent-face faces,  zone id: 19
            229 2D parent-face faces,  zone id: 18
             20 2D parent-face faces,  zone id: 17
             19 2D parent-face faces,  zone id: 16
             21 2D parent-face faces,  zone id: 15
          45157 2D parent-face faces,  zone id: 14
          16170 2D parent-face faces,  zone id: 13
      102461 nodes,     1 node zone  ...
  Done.


Building...
     mesh
     materials,
     interface,
     domains,
	mixture
     zones,
	outlet
	inlet
	interior-fluid
	interior-porous
	symmetry
	upper
	lower
	fluid
	porous
WARNING: "Smooth" contours can't be displayed when node-values is set to off. Changing the Coloring type to "Banded".
     parallel,
Done.
(cx-gui-do cx-set-list-tree-selections "NavigationPane*Frame2*Table1*List_Tree2" (list "Setup|Boundary Conditions|Inlet|inlet (velocity-inlet, id=6)"))
(cx-gui-do cx-set-list-tree-selections "NavigationPane*Frame2*Table1*List_Tree2" (list "Setup|Boundary Conditions|Inlet|inlet (velocity-inlet, id=6)"))
(cx-gui-do cx-activate-item "NavigationPane*Frame2*Table1*List_Tree2")
(cx-gui-do cx-set-list-tree-selections "NavigationPane*Frame2*Table1*List_Tree2" (list "Setup|Boundary Conditions|Inlet|inlet (velocity-inlet, id=6)"))
(cx-gui-do cx-activate-tab-index "Velocity Inlet*Frame2*Frame2" 0)
(cx-gui-do cx-activate-tab-index "Velocity Inlet*Frame2*Frame2" 1)
(cx-gui-do cx-activate-tab-index "Velocity Inlet*Frame2*Frame2" 0)
(cx-gui-do cx-activate-tab-index "Velocity Inlet*Frame2*Frame2" 2)
(cx-gui-do cx-activate-tab-index "Velocity Inlet*Frame2*Frame2" 0)
(cx-gui-do cx-activate-tab-index "Velocity Inlet*Frame2*Frame2" 3)
(cx-gui-do cx-activate-tab-index "Velocity Inlet*Frame2*Frame2" 0)
(cx-gui-do cx-activate-tab-index "Velocity Inlet*Frame2*Frame2" 4)
(cx-gui-do cx-activate-tab-index "Velocity Inlet*Frame2*Frame2" 0)
(cx-gui-do cx-activate-tab-index "Velocity Inlet*Frame2*Frame2" 5)
(cx-gui-do cx-activate-tab-index "Velocity Inlet*Frame2*Frame2" 0)
(cx-gui-do cx-activate-tab-index "Velocity Inlet*Frame2*Frame2" 6)
(cx-gui-do cx-activate-tab-index "Velocity Inlet*Frame2*Frame2" 0)
(cx-gui-do cx-activate-tab-index "Velocity Inlet*Frame2*Frame2" 7)
(cx-gui-do cx-activate-tab-index "Velocity Inlet*Frame2*Frame2" 0)
(cx-gui-do cx-activate-tab-index "Velocity Inlet*Frame2*Frame2" 8)
(cx-gui-do cx-activate-tab-index "Velocity Inlet*Frame2*Frame2" 0)
(cx-gui-do cx-enable-apply-button "Velocity Inlet")
(cx-gui-do cx-set-expression-entry "Velocity Inlet*Frame2*Frame2*Frame1(Momentum)*Table1*Table18*ExpressionEntry1(Y-Velocity)" '("0" . 0))
(cx-gui-do cx-set-expression-entry "Velocity Inlet*Frame2*Frame2*Frame1(Momentum)*Table1*Table17*ExpressionEntry1(X-Velocity)" '("1" . 0))
(cx-gui-do cx-activate-item "Velocity Inlet*PanelButtons*PushButton1(OK)")
(cx-gui-do cx-set-list-tree-selections "NavigationPane*Frame2*Table1*List_Tree2" (list "Setup|Boundary Conditions|Inlet|symmetry (velocity-inlet, id=8)"))
(cx-gui-do cx-set-list-tree-selections "NavigationPane*Frame2*Table1*List_Tree2" (list "Setup|Boundary Conditions|Inlet|symmetry (velocity-inlet, id=8)"))
(cx-gui-do cx-activate-item "NavigationPane*Frame2*Table1*List_Tree2")
(cx-gui-do cx-set-list-tree-selections "NavigationPane*Frame2*Table1*List_Tree2" (list "Setup|Boundary Conditions|Inlet|symmetry (velocity-inlet, id=8)"))
(cx-gui-do cx-activate-tab-index "Velocity Inlet*Frame2*Frame2" 0)
(cx-gui-do cx-activate-tab-index "Velocity Inlet*Frame2*Frame2" 1)
(cx-gui-do cx-activate-tab-index "Velocity Inlet*Frame2*Frame2" 0)
(cx-gui-do cx-activate-tab-index "Velocity Inlet*Frame2*Frame2" 2)
(cx-gui-do cx-activate-tab-index "Velocity Inlet*Frame2*Frame2" 0)
(cx-gui-do cx-activate-tab-index "Velocity Inlet*Frame2*Frame2" 3)
(cx-gui-do cx-activate-tab-index "Velocity Inlet*Frame2*Frame2" 0)
(cx-gui-do cx-activate-tab-index "Velocity Inlet*Frame2*Frame2" 4)
(cx-gui-do cx-activate-tab-index "Velocity Inlet*Frame2*Frame2" 0)
(cx-gui-do cx-activate-tab-index "Velocity Inlet*Frame2*Frame2" 5)
(cx-gui-do cx-activate-tab-index "Velocity Inlet*Frame2*Frame2" 0)
(cx-gui-do cx-activate-tab-index "Velocity Inlet*Frame2*Frame2" 6)
(cx-gui-do cx-activate-tab-index "Velocity Inlet*Frame2*Frame2" 0)
(cx-gui-do cx-activate-tab-index "Velocity Inlet*Frame2*Frame2" 7)
(cx-gui-do cx-activate-tab-index "Velocity Inlet*Frame2*Frame2" 0)
(cx-gui-do cx-activate-tab-index "Velocity Inlet*Frame2*Frame2" 8)
(cx-gui-do cx-activate-tab-index "Velocity Inlet*Frame2*Frame2" 0)
(cx-gui-do cx-enable-apply-button "Velocity Inlet")
(cx-gui-do cx-set-expression-entry "Velocity Inlet*Frame2*Frame2*Frame1(Momentum)*Table1*Table18*ExpressionEntry1(Y-Velocity)" '("0" . 0))
(cx-gui-do cx-set-expression-entry "Velocity Inlet*Frame2*Frame2*Frame1(Momentum)*Table1*Table17*ExpressionEntry1(X-Velocity)" '("1" . 0))
(cx-gui-do cx-activate-item "Velocity Inlet*PanelButtons*PushButton1(OK)")
(cx-gui-do cx-activate-item "Velocity Inlet*PanelButtons*PushButton1(OK)")
(cx-gui-do cx-activate-item "Velocity Inlet*PanelButtons*PushButton2(Cancel)")
(cx-gui-do cx-activate-item "Velocity Inlet*PanelButtons*PushButton2(Cancel)")
(cx-gui-do cx-set-list-tree-selections "NavigationPane*Frame2*Table1*List_Tree2" (list "Setup|Boundary Conditions|Inlet|inlet (velocity-inlet, id=6)"))
(cx-gui-do cx-set-list-tree-selections "NavigationPane*Frame2*Table1*List_Tree2" (list "Setup|Boundary Conditions|Inlet|inlet (velocity-inlet, id=6)"))
(cx-gui-do cx-activate-item "NavigationPane*Frame2*Table1*List_Tree2")
(cx-gui-do cx-set-list-tree-selections "NavigationPane*Frame2*Table1*List_Tree2" (list "Setup|Boundary Conditions|Inlet|inlet (velocity-inlet, id=6)"))
(cx-gui-do cx-set-list-tree-selections "NavigationPane*Frame2*Table1*List_Tree2" (list "Setup|Boundary Conditions|Inlet|symmetry (velocity-inlet, id=8)"))
(cx-gui-do cx-set-list-tree-selections "NavigationPane*Frame2*Table1*List_Tree2" (list "Setup|Boundary Conditions|Inlet|symmetry (velocity-inlet, id=8)"))
(cx-gui-do cx-activate-item "NavigationPane*Frame2*Table1*List_Tree2")
(cx-gui-do cx-set-list-tree-selections "NavigationPane*Frame2*Table1*List_Tree2" (list "Setup|Boundary Conditions|Inlet|symmetry (velocity-inlet, id=8)"))
(cx-gui-do cx-activate-item "Velocity Inlet*PanelButtons*PushButton1(OK)")
(cx-gui-do cx-activate-item "Velocity Inlet*PanelButtons*PushButton1(OK)")
(cx-gui-do cx-activate-item "Velocity Inlet*PanelButtons*PushButton2(Cancel)")
(cx-gui-do cx-activate-item "Velocity Inlet*PanelButtons*PushButton2(Cancel)")
(cx-gui-do cx-activate-item "MenuBar*WriteSubMenu*Case...")
(cx-gui-do cx-set-file-dialog-entries "Select File" '( "template_medium.cas.h5") "CFF Case Files (*.cas.h5 )")
(cx-gui-do cx-activate-item "Question*OK")

Writing to 37PCL051:"C:/Users/V.Chepuri/OneDrive - Cranfield University/irp/pablo/re_200000/AOA_0/template_medium.cas.h5" in NODE0 mode and compression level 1 ...
Grouping cells for Laplace smoothing ...
      181070 cells,     4 zones ...
      309160 faces,    14 zones ...
      102461 nodes,     1 zone  ...
  Done.
Done.
(cx-gui-do cx-activate-item "MenuBar*ReadSubMenu*Journal...")

Reading journal file C:/Users/V.Chepuri/OneDrive - Cranfield University/irp/pablo/re_200000/AOA_0/template.jou...

> ;change to correct dir

file/read-case template_medium.cas.h5 
37PCL051 has other FLUENT parallel processes running.                       Process affinity not being set.

       Clearing partially read grid.

Reading from 37PCL051:"C:\Users\V.Chepuri\OneDrive - Cranfield University\irp\pablo\re_200000\AOA_0\template_medium.cas.h5" in NODE0 mode ...
  Reading mesh ...
      181070 cells,     4 cell zones ...
          36824 mixed cells,  zone id: 2
         108032 mixed cells,  zone id: 4
          27008 mixed cells,  zone id: 12
           9206 mixed cells,  zone id: 11
      309160 faces,    14 face zones ...
          65137 2D interior faces,  zone id: 3
         181145 2D interior faces,  zone id: 5
             42 2D velocity-inlet faces,  zone id: 6
             38 2D pressure-outlet faces,  zone id: 7
             40 2D velocity-inlet faces,  zone id: 8
            458 2D interior faces,  zone id: 9
            456 2D interior faces,  zone id: 10
            228 2D parent-face faces,  zone id: 19
            229 2D parent-face faces,  zone id: 18
             20 2D parent-face faces,  zone id: 17
             19 2D parent-face faces,  zone id: 16
             21 2D parent-face faces,  zone id: 15
          45157 2D parent-face faces,  zone id: 14
          16170 2D parent-face faces,  zone id: 13
      102461 nodes,     1 node zone  ...
  Done.


Building...
     mesh
     materials,
     interface,
     domains,
	mixture
     zones,
	outlet
	inlet
	interior-fluid
	interior-porous
	symmetry
	upper
	lower
	fluid
	porous
WARNING: "Smooth" contours can't be displayed when node-values is set to off. Changing the Coloring type to "Banded".
     parallel,
Done.
OK


Overwrite confirmations (/file/set-batch-options ...)
are on -- will therefore ignore the following journal
Error: invalid command: OK


> 
adjoint/                parallel/               server/
define/                 parametric-study/       solve/
display/                plot/                   surface/
exit                    preferences/            views/
file/                   print-license-usage
mesh/                   report/

> ;modify permeability parameters
define/named-expressions/edit a definition " 0.0 " q q q

> define/named-expressions/edit b definition " 0.0 " q q q

> define/named-expressions/edit c definition " 0.0 " q q q

> define/named-expressions/edit d definition " 0.0 " q q q

> define/named-expressions/edit e1 definition " -5.0 " q q q

> define/named-expressions/edit a2 definition " 0.0 " q q q

> define/named-expressions/edit b2 definition " 0.0 " q q q

> define/named-expressions/edit c2 definition " 0.0 " q q q

> define/named-expressions/edit d2 definition " 0.0 " q q q

> define/named-expressions/edit e2 definition " -5.0 " q q q

> 
adjoint/                parallel/               server/
define/                 parametric-study/       solve/
display/                plot/                   surface/
exit                    preferences/            views/
file/                   print-license-usage
mesh/                   report/

> ;run simulation
solve/initialize/hyb-initialization 
Initialize using the hybrid initialization method.

Checking case topology... 
-This case has both inlets & outlets 
-Pressure information is not available at the boundaries.
 Case will be initialized with constant pressure

	iter		scalar-0

	1		1.000000e+00
	2		1.279580e-05
	3		9.724497e-07
	4		3.332343e-07
	5		5.809391e-08
	6		3.986265e-08
	7		3.256788e-08
	8		3.237026e-08
	9		3.190084e-08
	10		3.361193e-08

Hybrid initialization is done.


> solve/iterate 2000

  iter  continuity  x-velocity  y-velocity           k       omega     time/iter
     1  1.0000e+00  2.0878e-04  1.5204e-03  5.2424e-01  3.1118e-01  0:00:00 1999
     2  1.0000e+00  6.1794e-04  7.3119e-04  3.5749e-01  2.6674e-01  0:33:18 1998
     3  5.8933e-01  3.4681e-04  3.3380e-04  1.9080e-01  2.1257e-01  0:26:38 1997
     4  4.4229e-01  1.8065e-04  1.5322e-04  9.1749e-02  1.5704e-01  0:27:57 1996
     5  3.2770e-01  1.3400e-04  9.9962e-05  4.8922e-02  1.1041e-01  0:22:21 1995
     6  2.3407e-01  1.0167e-04  6.9219e-05  3.1715e-02  7.5925e-02  0:17:52 1994
     7  1.6780e-01  7.2025e-05  4.6571e-05  2.3495e-02  5.3072e-02  0:14:17 1993
     8  1.2371e-01  5.5573e-05  3.6311e-05  1.8756e-02  3.8549e-02  0:11:25 1992
     9  9.0610e-02  4.4167e-05  2.7569e-05  1.5581e-02  2.9225e-02  0:09:08 1991
    10  6.7712e-02  3.7126e-05  2.2247e-05  1.3297e-02  2.3059e-02  0:13:56 1990
    11  5.0387e-02  3.1616e-05  1.8266e-05  1.1588e-02  1.8801e-02  0:11:09 1989

  iter  continuity  x-velocity  y-velocity           k       omega     time/iter
    12  4.0345e-02  2.7737e-05  1.6483e-05  1.0280e-02  1.5746e-02  0:08:55 1988
    13  3.0577e-02  2.4206e-05  1.3563e-05  9.1635e-03  1.3300e-02  0:07:07 1987
    14  2.3857e-02  2.1569e-05  1.2036e-05  8.2568e-03  1.1448e-02  0:05:42 1986
    15  1.8902e-02  1.9353e-05  1.0365e-05  7.4935e-03  1.0008e-02  0:11:10 1985
    16  1.5298e-02  1.7700e-05  9.3580e-06  6.8433e-03  8.8600e-03  0:08:56 1984
    17  1.2408e-02  1.6454e-05  8.4383e-06  6.2827e-03  7.9289e-03  0:07:09 1983
    18  1.0438e-02  1.5453e-05  7.6450e-06  5.7985e-03  7.1599e-03  0:05:43 1982
    19  8.7323e-03  1.4712e-05  7.0751e-06  5.3754e-03  6.5155e-03  0:11:10 1981
    20  7.5724e-03  1.3973e-05  6.4953e-06  5.0058e-03  5.9690e-03  0:08:56 1980
    21  6.5363e-03  1.3404e-05  6.1504e-06  4.6818e-03  5.4997e-03  0:07:09 1979
    22  5.8045e-03  1.2848e-05  5.6853e-06  4.3912e-03  5.0930e-03  0:05:43 1978

  iter  continuity  x-velocity  y-velocity           k       omega     time/iter
    23  5.1030e-03  1.2427e-05  5.3559e-06  4.1336e-03  4.7374e-03  0:04:34 1977
    24  4.6672e-03  1.2005e-05  5.0390e-06  3.9047e-03  4.4244e-03  0:03:39 1976
    25  4.1606e-03  1.1641e-05  4.7354e-06  3.7000e-03  4.1470e-03  0:09:30 1975
    26  3.8013e-03  1.1278e-05  4.4583e-06  3.5145e-03  3.8998e-03  0:07:36 1974
    27  3.5561e-03  1.0957e-05  4.2249e-06  3.3462e-03  3.6780e-03  0:06:05 1973
    28  3.2379e-03  1.0676e-05  3.9927e-06  3.1938e-03  3.4782e-03  0:04:51 1972
    29  3.0859e-03  1.0412e-05  3.8017e-06  3.0545e-03  3.2978e-03  0:03:53 1971
    30  2.9086e-03  1.0169e-05  3.6186e-06  2.9263e-03  3.1337e-03  0:09:40 1970
    31  2.6911e-03  9.9539e-06  3.4609e-06  2.8082e-03  2.9845e-03  0:07:44 1969
    32  2.5986e-03  9.7375e-06  3.3234e-06  2.6988e-03  2.8483e-03  0:06:11 1968
    33  2.5019e-03  9.5391e-06  3.1906e-06  2.5972e-03  2.7234e-03  0:04:57 1967

  iter  continuity  x-velocity  y-velocity           k       omega     time/iter
    34  2.4020e-03  9.3588e-06  3.0721e-06  2.5025e-03  2.6088e-03  0:03:57 1966
    35  2.3235e-03  9.1875e-06  2.9645e-06  2.4145e-03  2.5030e-03  0:09:43 1965
    36  2.2550e-03  9.0149e-06  2.8652e-06  2.3330e-03  2.4050e-03  0:07:46 1964
    37  2.1891e-03  8.8511e-06  2.7719e-06  2.2567e-03  2.3144e-03  0:06:13 1963
    38  2.1301e-03  8.6935e-06  2.6837e-06  2.1859e-03  2.2301e-03  0:11:30 1962
    39  2.0767e-03  8.5366e-06  2.6006e-06  2.1202e-03  2.1520e-03  0:09:12 1961
    40  2.0337e-03  8.3847e-06  2.5226e-06  2.0585e-03  2.0787e-03  0:07:21 1960
    41  1.9872e-03  8.2403e-06  2.4486e-06  2.0014e-03  2.0102e-03  0:05:53 1959
    42  1.9457e-03  8.1027e-06  2.3799e-06  1.9481e-03  1.9460e-03  0:04:42 1958
    43  1.9100e-03  7.9723e-06  2.3156e-06  1.8983e-03  1.8857e-03  0:10:17 1957
    44  1.8749e-03  7.8471e-06  2.2566e-06  1.8518e-03  1.8289e-03  0:08:13 1956

  iter  continuity  x-velocity  y-velocity           k       omega     time/iter
    45  1.8399e-03  7.7286e-06  2.1995e-06  1.8084e-03  1.7753e-03  0:06:34 1955
    46  1.8054e-03  7.6185e-06  2.1461e-06  1.7675e-03  1.7248e-03  0:05:15 1954
    47  1.7838e-03  7.5139e-06  2.0971e-06  1.7290e-03  1.6771e-03  0:04:12 1953
    48  1.7564e-03  7.4125e-06  2.0499e-06  1.6927e-03  1.6319e-03  0:03:22 1952
    49  1.7343e-03  7.3207e-06  2.0052e-06  1.6589e-03  1.5889e-03  0:09:11 1951
    50  1.7181e-03  7.2282e-06  1.9632e-06  1.6266e-03  1.5481e-03  0:07:21 1950
    51  1.6996e-03  7.1358e-06  1.9212e-06  1.5962e-03  1.5091e-03  0:05:53 1949
    52  1.6816e-03  7.0442e-06  1.8814e-06  1.5674e-03  1.4721e-03  0:04:42 1948
    53  1.6717e-03  6.9582e-06  1.8423e-06  1.5400e-03  1.4368e-03  0:03:45 1947
    54  1.6575e-03  6.8754e-06  1.8049e-06  1.5142e-03  1.4030e-03  0:09:29 1946
    55  1.6401e-03  6.7925e-06  1.7694e-06  1.4895e-03  1.3707e-03  0:07:35 1945

  iter  continuity  x-velocity  y-velocity           k       omega     time/iter
    56  1.6197e-03  6.7114e-06  1.7344e-06  1.4661e-03  1.3398e-03  0:06:04 1944
    57  1.6100e-03  6.6349e-06  1.7030e-06  1.4436e-03  1.3102e-03  0:04:51 1943
    58  1.6016e-03  6.5622e-06  1.6729e-06  1.4216e-03  1.2818e-03  0:03:53 1942
    59  1.5947e-03  6.4907e-06  1.6446e-06  1.4009e-03  1.2545e-03  0:09:34 1941
    60  1.5854e-03  6.4191e-06  1.6170e-06  1.3807e-03  1.2283e-03  0:07:39 1940
    61  1.5803e-03  6.3504e-06  1.5902e-06  1.3617e-03  1.2030e-03  0:06:07 1939
    62  1.5644e-03  6.2842e-06  1.5642e-06  1.3435e-03  1.1785e-03  0:04:54 1938
    63  1.5531e-03  6.2211e-06  1.5375e-06  1.3256e-03  1.1550e-03  0:03:55 1937
    64  1.5520e-03  6.1603e-06  1.5126e-06  1.3080e-03  1.1324e-03  0:09:35 1936
    65  1.5387e-03  6.0964e-06  1.4892e-06  1.2914e-03  1.1106e-03  0:07:40 1935
    66  1.5313e-03  6.0321e-06  1.4672e-06  1.2753e-03  1.0896e-03  0:06:08 1934

  iter  continuity  x-velocity  y-velocity           k       omega     time/iter
    67  1.5279e-03  5.9704e-06  1.4442e-06  1.2598e-03  1.0693e-03  0:04:54 1933
    68  1.5243e-03  5.9094e-06  1.4231e-06  1.2446e-03  1.0497e-03  0:03:55 1932
    69  1.5166e-03  5.8492e-06  1.4030e-06  1.2300e-03  1.0308e-03  0:03:08 1931
    70  1.5178e-03  5.7929e-06  1.3833e-06  1.2158e-03  1.0125e-03  0:08:56 1930
    71  1.5155e-03  5.7354e-06  1.3644e-06  1.2022e-03  9.9490e-04  0:07:09 1929
    72  1.5027e-03  5.6797e-06  1.3465e-06  1.1886e-03  9.7781e-04  0:05:43 1928
    73  1.4988e-03  5.6268e-06  1.3294e-06  1.1756e-03  9.6126e-04  0:04:34 1927
    74  1.4900e-03  5.5720e-06  1.3128e-06  1.1631e-03  9.4513e-04  0:03:39 1926
    75  1.4833e-03  5.5191e-06  1.2966e-06  1.1509e-03  9.2961e-04  0:09:20 1925
    76  1.4753e-03  5.4669e-06  1.2804e-06  1.1389e-03  9.1464e-04  0:07:28 1924
    77  1.4699e-03  5.4158e-06  1.2643e-06  1.1276e-03  9.0025e-04  0:05:58 1923

  iter  continuity  x-velocity  y-velocity           k       omega     time/iter
    78  1.4712e-03  5.3637e-06  1.2495e-06  1.1163e-03  8.8629e-04  0:04:46 1922
    79  1.4613e-03  5.3154e-06  1.2367e-06  1.1052e-03  8.7269e-04  0:03:49 1921
    80  1.4593e-03  5.2654e-06  1.2231e-06  1.0941e-03  8.5962e-04  0:09:27 1920
    81  1.4477e-03  5.2151e-06  1.2098e-06  1.0834e-03  8.4702e-04  0:07:33 1919
    82  1.4396e-03  5.1685e-06  1.1969e-06  1.0730e-03  8.3477e-04  0:06:03 1918
    83  1.4255e-03  5.1220e-06  1.1841e-06  1.0627e-03  8.2290e-04  0:04:50 1917
    84  1.4189e-03  5.0790e-06  1.1722e-06  1.0525e-03  8.1147e-04  0:10:15 1916
    85  1.4116e-03  5.0360e-06  1.1604e-06  1.0427e-03  8.0043e-04  0:08:12 1915
    86  1.4046e-03  4.9910e-06  1.1482e-06  1.0334e-03  7.8971e-04  0:06:33 1914
    87  1.3934e-03  4.9463e-06  1.1372e-06  1.0240e-03  7.7911e-04  0:05:14 1913
    88  1.3832e-03  4.9010e-06  1.1270e-06  1.0147e-03  7.6878e-04  0:04:11 1912

  iter  continuity  x-velocity  y-velocity           k       omega     time/iter
    89  1.3765e-03  4.8581e-06  1.1156e-06  1.0056e-03  7.5872e-04  0:09:43 1911
    90  1.3698e-03  4.8151e-06  1.1054e-06  9.9663e-04  7.4888e-04  0:07:46 1910
    91  1.3635e-03  4.7730e-06  1.0948e-06  9.8768e-04  7.3935e-04  0:06:13 1909
    92  1.3540e-03  4.7301e-06  1.0837e-06  9.7900e-04  7.3020e-04  0:04:58 1908
    93  1.3472e-03  4.6864e-06  1.0737e-06  9.7049e-04  7.2130e-04  0:03:58 1907
    94  1.3434e-03  4.6445e-06  1.0629e-06  9.6227e-04  7.1256e-04  0:09:32 1906
    95  1.3343e-03  4.6006e-06  1.0528e-06  9.5419e-04  7.0411e-04  0:07:37 1905
    96  1.3280e-03  4.5593e-06  1.0429e-06  9.4619e-04  6.9588e-04  0:06:06 1904
    97  1.3227e-03  4.5176e-06  1.0324e-06  9.3846e-04  6.8787e-04  0:04:52 1903
    98  1.3119e-03  4.4776e-06  1.0229e-06  9.3073e-04  6.8003e-04  0:03:54 1902
    99  1.3015e-03  4.4372e-06  1.0132e-06  9.2316e-04  6.7240e-04  0:03:07 1901

  iter  continuity  x-velocity  y-velocity           k       omega     time/iter
   100  1.2924e-03  4.3982e-06  1.0034e-06  9.1578e-04  6.6494e-04  0:08:49 1900
   101  1.2863e-03  4.3599e-06  9.9320e-07  9.0853e-04  6.5764e-04  0:07:03 1899
   102  1.2769e-03  4.3229e-06  9.8356e-07  9.0147e-04  6.5048e-04  0:05:38 1898
   103  1.2708e-03  4.2859e-06  9.7269e-07  8.9460e-04  6.4355e-04  0:04:31 1897
   104  1.2657e-03  4.2482e-06  9.6248e-07  8.8792e-04  6.3681e-04  0:03:36 1896
   105  1.2561e-03  4.2106e-06  9.5287e-07  8.8139e-04  6.3021e-04  0:09:12 1895
   106  1.2493e-03  4.1748e-06  9.4428e-07  8.7497e-04  6.2379e-04  0:07:21 1894
   107  1.2478e-03  4.1408e-06  9.3450e-07  8.6878e-04  6.1743e-04  0:05:53 1893
   108  1.2438e-03  4.1062e-06  9.2507e-07  8.6269e-04  6.1121e-04  0:04:42 1892
   109  1.2408e-03  4.0735e-06  9.1564e-07  8.5662e-04  6.0513e-04  0:03:46 1891
   110  1.2369e-03  4.0435e-06  9.0704e-07  8.5070e-04  5.9923e-04  0:03:00 1890

  iter  continuity  x-velocity  y-velocity           k       omega     time/iter
   111  1.2341e-03  4.0133e-06  8.9817e-07  8.4489e-04  5.9351e-04  0:08:42 1889
   112  1.2299e-03  3.9835e-06  8.8935e-07  8.3920e-04  5.8790e-04  0:06:57 1888
   113  1.2229e-03  3.9544e-06  8.8072e-07  8.3361e-04  5.8231e-04  0:05:34 1887
   114  1.2224e-03  3.9266e-06  8.7270e-07  8.2792e-04  5.7689e-04  0:04:27 1886
   115  1.2151e-03  3.8980e-06  8.6473e-07  8.2235e-04  5.7158e-04  0:03:33 1885
   116  1.2112e-03  3.8704e-06  8.5647e-07  8.1690e-04  5.6639e-04  0:09:07 1884
   117  1.2097e-03  3.8430e-06  8.4937e-07  8.1149e-04  5.6134e-04  0:07:18 1883
   118  1.2070e-03  3.8164e-06  8.4195e-07  8.0619e-04  5.5637e-04  0:05:50 1882
   119  1.2096e-03  3.7919e-06  8.3504e-07  8.0097e-04  5.5145e-04  0:04:40 1881
   120  1.2057e-03  3.7663e-06  8.2983e-07  7.9571e-04  5.4662e-04  0:03:44 1880
   121  1.1997e-03  3.7408e-06  8.2295e-07  7.9049e-04  5.4188e-04  0:02:59 1879

  iter  continuity  x-velocity  y-velocity           k       omega     time/iter
   122  1.2009e-03  3.7143e-06  8.1675e-07  7.8541e-04  5.3728e-04  0:08:39 1878
   123  1.1992e-03  3.6892e-06  8.1107e-07  7.8041e-04  5.3280e-04  0:06:55 1877
   124  1.1990e-03  3.6636e-06  8.0564e-07  7.7536e-04  5.2840e-04  0:05:32 1876
   125  1.1924e-03  3.6408e-06  8.0022e-07  7.7036e-04  5.2406e-04  0:04:25 1875
   126  1.1907e-03  3.6163e-06  7.9458e-07  7.6549e-04  5.1979e-04  0:03:32 1874
   127  1.1911e-03  3.5946e-06  7.8923e-07  7.6058e-04  5.1558e-04  0:09:04 1873
   128  1.1885e-03  3.5726e-06  7.8439e-07  7.5584e-04  5.1148e-04  0:07:15 1872
   129  1.1895e-03  3.5525e-06  7.8006e-07  7.5112e-04  5.0750e-04  0:05:48 1871
   130  1.1849e-03  3.5302e-06  7.7398e-07  7.4645e-04  5.0355e-04  0:04:38 1870
   131  1.1890e-03  3.5077e-06  7.6968e-07  7.4182e-04  4.9965e-04  0:09:56 1869
   132  1.1887e-03  3.4837e-06  7.6383e-07  7.3726e-04  4.9583e-04  0:07:57 1868

  iter  continuity  x-velocity  y-velocity           k       omega     time/iter
   133  1.1878e-03  3.4608e-06  7.5855e-07  7.3273e-04  4.9203e-04  0:06:21 1867
   134  1.1846e-03  3.4389e-06  7.5422e-07  7.2827e-04  4.8829e-04  0:05:05 1866
   135  1.1846e-03  3.4171e-06  7.4849e-07  7.2383e-04  4.8459e-04  0:04:04 1865
   136  1.1814e-03  3.3961e-06  7.4439e-07  7.1952e-04  4.8095e-04  0:03:15 1864
   137  1.1754e-03  3.3751e-06  7.3961e-07  7.1516e-04  4.7738e-04  0:08:48 1863
   138  1.1751e-03  3.3540e-06  7.3604e-07  7.1090e-04  4.7386e-04  0:07:02 1862
   139  1.1769e-03  3.3343e-06  7.3264e-07  7.0661e-04  4.7039e-04  0:05:38 1861
   140  1.1654e-03  3.3129e-06  7.2857e-07  7.0242e-04  4.6695e-04  0:04:30 1860
   141  1.1638e-03  3.2947e-06  7.2374e-07  6.9814e-04  4.6354e-04  0:03:36 1859
   142  1.1680e-03  3.2756e-06  7.1967e-07  6.9387e-04  4.6018e-04  0:09:04 1858
   143  1.1667e-03  3.2559e-06  7.1542e-07  6.8970e-04  4.5684e-04  0:07:15 1857

  iter  continuity  x-velocity  y-velocity           k       omega     time/iter
   144  1.1634e-03  3.2371e-06  7.1199e-07  6.8564e-04  4.5353e-04  0:05:48 1856
   145  1.1641e-03  3.2168e-06  7.0751e-07  6.8161e-04  4.5024e-04  0:04:38 1855
   146  1.1520e-03  3.1979e-06  7.0323e-07  6.7757e-04  4.4704e-04  0:03:42 1854
   147  1.1490e-03  3.1797e-06  6.9828e-07  6.7353e-04  4.4388e-04  0:02:58 1853
   148  1.1439e-03  3.1599e-06  6.9525e-07  6.6947e-04  4.4077e-04  0:08:33 1852
   149  1.1359e-03  3.1418e-06  6.8977e-07  6.6541e-04  4.3766e-04  0:06:50 1851
   150  1.1338e-03  3.1221e-06  6.8510e-07  6.6140e-04  4.3463e-04  0:05:28 1850
   151  1.1272e-03  3.1018e-06  6.7990e-07  6.5740e-04  4.3157e-04  0:04:22 1849
   152  1.1276e-03  3.0819e-06  6.7502e-07  6.5337e-04  4.2857e-04  0:03:30 1848
   153  1.1248e-03  3.0620e-06  6.7033e-07  6.4943e-04  4.2561e-04  0:08:57 1847
   154  1.1237e-03  3.0414e-06  6.6448e-07  6.4550e-04  4.2265e-04  0:07:09 1846

  iter  continuity  x-velocity  y-velocity           k       omega     time/iter
   155  1.1179e-03  3.0215e-06  6.5866e-07  6.4153e-04  4.1972e-04  0:05:43 1845
   156  1.1104e-03  3.0009e-06  6.5320e-07  6.3756e-04  4.1687e-04  0:04:34 1844
   157  1.1066e-03  2.9794e-06  6.4813e-07  6.3366e-04  4.1406e-04  0:03:39 1843
   158  1.1076e-03  2.9583e-06  6.4382e-07  6.2973e-04  4.1129e-04  0:09:04 1842
   159  1.1067e-03  2.9399e-06  6.3829e-07  6.2581e-04  4.0855e-04  0:07:15 1841
   160  1.1054e-03  2.9198e-06  6.3261e-07  6.2184e-04  4.0582e-04  0:05:48 1840
   161  1.1110e-03  2.8993e-06  6.2694e-07  6.1792e-04  4.0311e-04  0:04:38 1839
   162  1.1045e-03  2.8782e-06  6.2253e-07  6.1401e-04  4.0047e-04  0:03:42 1838
   163  1.1002e-03  2.8601e-06  6.1539e-07  6.1023e-04  3.9782e-04  0:02:58 1837
   164  1.0973e-03  2.8405e-06  6.1009e-07  6.0641e-04  3.9513e-04  0:08:29 1836
   165  1.0961e-03  2.8192e-06  6.0434e-07  6.0253e-04  3.9248e-04  0:06:47 1835

  iter  continuity  x-velocity  y-velocity           k       omega     time/iter
   166  1.0946e-03  2.7985e-06  5.9831e-07  5.9864e-04  3.8984e-04  0:05:26 1834
   167  1.0944e-03  2.7774e-06  5.9387e-07  5.9480e-04  3.8725e-04  0:04:20 1833
   168  1.0908e-03  2.7557e-06  5.8865e-07  5.9100e-04  3.8468e-04  0:03:28 1832
   169  1.0906e-03  2.7350e-06  5.8375e-07  5.8715e-04  3.8213e-04  0:08:53 1831
   170  1.0931e-03  2.7153e-06  5.7895e-07  5.8336e-04  3.7960e-04  0:07:06 1830
   171  1.0936e-03  2.6939e-06  5.7324e-07  5.7959e-04  3.7711e-04  0:05:41 1829
   172  1.0941e-03  2.6751e-06  5.6619e-07  5.7581e-04  3.7463e-04  0:04:32 1828
   173  1.0893e-03  2.6530e-06  5.6018e-07  5.7201e-04  3.7214e-04  0:03:38 1827
   174  1.0847e-03  2.6315e-06  5.5393e-07  5.6822e-04  3.6966e-04  0:08:59 1826
   175  1.0839e-03  2.6092e-06  5.4913e-07  5.6444e-04  3.6720e-04  0:07:11 1825
   176  1.0839e-03  2.5847e-06  5.4363e-07  5.6067e-04  3.6478e-04  0:05:45 1824

  iter  continuity  x-velocity  y-velocity           k       omega     time/iter
   177  1.0781e-03  2.5604e-06  5.3873e-07  5.5690e-04  3.6237e-04  0:04:36 1823
   178  1.0690e-03  2.5352e-06  5.3278e-07  5.5319e-04  3.6000e-04  0:09:45 1822
   179  1.0650e-03  2.5102e-06  5.2567e-07  5.4954e-04  3.5765e-04  0:07:48 1821
   180  1.0561e-03  2.4866e-06  5.1972e-07  5.4592e-04  3.5532e-04  0:06:14 1820
   181  1.0541e-03  2.4644e-06  5.1504e-07  5.4227e-04  3.5298e-04  0:04:59 1819
   182  1.0582e-03  2.4445e-06  5.1106e-07  5.3865e-04  3.5065e-04  0:03:59 1818
   183  1.0602e-03  2.4270e-06  5.0760e-07  5.3503e-04  3.4832e-04  0:09:15 1817
   184  1.0543e-03  2.4066e-06  5.0234e-07  5.3140e-04  3.4600e-04  0:07:23 1816
   185  1.0491e-03  2.3896e-06  4.9793e-07  5.2781e-04  3.4366e-04  0:05:54 1815
   186  1.0443e-03  2.3728e-06  4.9268e-07  5.2427e-04  3.4136e-04  0:04:43 1814
   187  1.0331e-03  2.3554e-06  4.8851e-07  5.2072e-04  3.3907e-04  0:03:47 1813

  iter  continuity  x-velocity  y-velocity           k       omega     time/iter
   188  1.0174e-03  2.3356e-06  4.8329e-07  5.1720e-04  3.3678e-04  0:09:04 1812
   189  1.0140e-03  2.3191e-06  4.7749e-07  5.1371e-04  3.3449e-04  0:07:15 1811
   190  1.0057e-03  2.3029e-06  4.7440e-07  5.1024e-04  3.3219e-04  0:05:48 1810
   191  9.9767e-04  2.2897e-06  4.7105e-07  5.0679e-04  3.2991e-04  0:04:38 1809
   192  9.9158e-04  2.2742e-06  4.6829e-07  5.0340e-04  3.2766e-04  0:03:42 1808
   193  9.8671e-04  2.2634e-06  4.6351e-07  5.0004e-04  3.2540e-04  0:08:59 1807
   194  9.7747e-04  2.2509e-06  4.5966e-07  4.9673e-04  3.2313e-04  0:07:11 1806
   195  9.6514e-04  2.2387e-06  4.5664e-07  4.9343e-04  3.2088e-04  0:05:45 1805
   196  9.5344e-04  2.2242e-06  4.5279e-07  4.9019e-04  3.1864e-04  0:04:36 1804
   197  9.4199e-04  2.2098e-06  4.4856e-07  4.8698e-04  3.1641e-04  0:03:40 1803
   198  9.3117e-04  2.1980e-06  4.4593e-07  4.8380e-04  3.1416e-04  0:02:56 1802

  iter  continuity  x-velocity  y-velocity           k       omega     time/iter
   199  9.2690e-04  2.1845e-06  4.4197e-07  4.8067e-04  3.1190e-04  0:08:21 1801
   200  9.1220e-04  2.1735e-06  4.3825e-07  4.7756e-04  3.0964e-04  0:06:41 1800
   201  9.0570e-04  2.1616e-06  4.3528e-07  4.7446e-04  3.0740e-04  0:05:20 1799
   202  8.9697e-04  2.1522e-06  4.3140e-07  4.7140e-04  3.0517e-04  0:04:16 1798
   203  8.8842e-04  2.1421e-06  4.2818e-07  4.6836e-04  3.0294e-04  0:03:25 1797
   204  8.7773e-04  2.1315e-06  4.2495e-07  4.6535e-04  3.0070e-04  0:08:43 1796
   205  8.6306e-04  2.1213e-06  4.2165e-07  4.6239e-04  2.9849e-04  0:06:58 1795
   206  8.5219e-04  2.1091e-06  4.1776e-07  4.5946e-04  2.9626e-04  0:05:34 1794
   207  8.4104e-04  2.0970e-06  4.1444e-07  4.5657e-04  2.9402e-04  0:04:27 1793
   208  8.3519e-04  2.0846e-06  4.1158e-07  4.5370e-04  2.9179e-04  0:03:34 1792
   209  8.2859e-04  2.0728e-06  4.0858e-07  4.5088e-04  2.8955e-04  0:02:51 1791

  iter  continuity  x-velocity  y-velocity           k       omega     time/iter
   210  8.1461e-04  2.0607e-06  4.0563e-07  4.4808e-04  2.8732e-04  0:08:15 1790
   211  8.0631e-04  2.0495e-06  4.0342e-07  4.4531e-04  2.8510e-04  0:06:35 1789
   212  7.9242e-04  2.0349e-06  4.0103e-07  4.4256e-04  2.8286e-04  0:05:16 1788
   213  7.7749e-04  2.0227e-06  3.9684e-07  4.3986e-04  2.8063e-04  0:04:13 1787
   214  7.6319e-04  2.0114e-06  3.9372e-07  4.3718e-04  2.7839e-04  0:03:22 1786
   215  7.4997e-04  1.9976e-06  3.9059e-07  4.3453e-04  2.7617e-04  0:08:39 1785
   216  7.3794e-04  1.9866e-06  3.8764e-07  4.3193e-04  2.7393e-04  0:06:55 1784
   217  7.3179e-04  1.9751e-06  3.8462e-07  4.2936e-04  2.7171e-04  0:05:32 1783
   218  7.2306e-04  1.9644e-06  3.8239e-07  4.2683e-04  2.6949e-04  0:04:25 1782
   219  7.1539e-04  1.9542e-06  3.8000e-07  4.2435e-04  2.6728e-04  0:03:32 1781
   220  7.1117e-04  1.9429e-06  3.7781e-07  4.2188e-04  2.6508e-04  0:02:49 1780

  iter  continuity  x-velocity  y-velocity           k       omega     time/iter
   221  7.0267e-04  1.9333e-06  3.7459e-07  4.1945e-04  2.6289e-04  0:08:11 1779
   222  6.9511e-04  1.9221e-06  3.7249e-07  4.1703e-04  2.6070e-04  0:06:33 1778
   223  6.9150e-04  1.9124e-06  3.6907e-07  4.1463e-04  2.5852e-04  0:05:14 1777
   224  6.8692e-04  1.9012e-06  3.6683e-07  4.1223e-04  2.5633e-04  0:10:06 1776
   225  6.7478e-04  1.8889e-06  3.6379e-07  4.0986e-04  2.5416e-04  0:08:05 1775
   226  6.7331e-04  1.8765e-06  3.6182e-07  4.0750e-04  2.5198e-04  0:06:28 1774
   227  6.6846e-04  1.8620e-06  3.5963e-07  4.0517e-04  2.4983e-04  0:05:10 1773
   228  6.6274e-04  1.8474e-06  3.5665e-07  4.0282e-04  2.4766e-04  0:04:08 1772
   229  6.5644e-04  1.8336e-06  3.5416e-07  4.0050e-04  2.4551e-04  0:03:18 1771
   230  6.4615e-04  1.8195e-06  3.4982e-07  3.9819e-04  2.4336e-04  0:08:32 1770
   231  6.4177e-04  1.8084e-06  3.4784e-07  3.9589e-04  2.4123e-04  0:06:50 1769

  iter  continuity  x-velocity  y-velocity           k       omega     time/iter
   232  6.3816e-04  1.7955e-06  3.4412e-07  3.9358e-04  2.3910e-04  0:05:28 1768
   233  6.3480e-04  1.7817e-06  3.4298e-07  3.9130e-04  2.3698e-04  0:04:22 1767
   234  6.2543e-04  1.7669e-06  3.3868e-07  3.8902e-04  2.3487e-04  0:03:29 1766
   235  6.2086e-04  1.7525e-06  3.3535e-07  3.8677e-04  2.3277e-04  0:02:47 1765
   236  6.1217e-04  1.7379e-06  3.3244e-07  3.8450e-04  2.3068e-04  0:08:07 1764
   237  6.0361e-04  1.7229e-06  3.2950e-07  3.8228e-04  2.2862e-04  0:06:29 1763
   238  5.9876e-04  1.7089e-06  3.2645e-07  3.8003e-04  2.2657e-04  0:05:11 1762
   239  5.9056e-04  1.6950e-06  3.2350e-07  3.7782e-04  2.2454e-04  0:04:09 1761
   240  5.8741e-04  1.6798e-06  3.2084e-07  3.7560e-04  2.2251e-04  0:03:19 1760
   241  5.7727e-04  1.6655e-06  3.1759e-07  3.7343e-04  2.2051e-04  0:08:31 1759
   242  5.7197e-04  1.6515e-06  3.1434e-07  3.7121e-04  2.1852e-04  0:06:48 1758

  iter  continuity  x-velocity  y-velocity           k       omega     time/iter
   243  5.6791e-04  1.6378e-06  3.1162e-07  3.6905e-04  2.1654e-04  0:05:27 1757
   244  5.5989e-04  1.6235e-06  3.0841e-07  3.6686e-04  2.1457e-04  0:04:21 1756
   245  5.5652e-04  1.6092e-06  3.0420e-07  3.6472e-04  2.1262e-04  0:03:29 1755
   246  5.5309e-04  1.5944e-06  3.0409e-07  3.6255e-04  2.1069e-04  0:08:38 1754
   247  5.4824e-04  1.5793e-06  2.9831e-07  3.6044e-04  2.0878e-04  0:06:54 1753
   248  5.4770e-04  1.5666e-06  2.9821e-07  3.5829e-04  2.0689e-04  0:05:31 1752
   249  5.4124e-04  1.5504e-06  2.9249e-07  3.5620e-04  2.0503e-04  0:04:25 1751
   250  5.3799e-04  1.5350e-06  2.9339e-07  3.5408e-04  2.0318e-04  0:03:32 1750
   251  5.3165e-04  1.5188e-06  2.8753e-07  3.5200e-04  2.0136e-04  0:08:39 1749
   252  5.2970e-04  1.5050e-06  2.8764e-07  3.4990e-04  1.9956e-04  0:06:55 1748
   253  5.2062e-04  1.4900e-06  2.8180e-07  3.4784e-04  1.9779e-04  0:05:32 1747

  iter  continuity  x-velocity  y-velocity           k       omega     time/iter
   254  5.1750e-04  1.4759e-06  2.8133e-07  3.4576e-04  1.9602e-04  0:04:25 1746
   255  5.0949e-04  1.4624e-06  2.7632e-07  3.4373e-04  1.9430e-04  0:03:32 1745
   256  5.0817e-04  1.4522e-06  2.7660e-07  3.4167e-04  1.9259e-04  0:02:50 1744
   257  4.9863e-04  1.4377e-06  2.7135e-07  3.3966e-04  1.9091e-04  0:08:04 1743
   258  4.9745e-04  1.4251e-06  2.7148e-07  3.3762e-04  1.8926e-04  0:06:27 1742
   259  4.9196e-04  1.4116e-06  2.6727e-07  3.3562e-04  1.8764e-04  0:05:10 1741
   260  4.8927e-04  1.4010e-06  2.6605e-07  3.3362e-04  1.8604e-04  0:04:07 1740
   261  4.8644e-04  1.3876e-06  2.6239e-07  3.3165e-04  1.8447e-04  0:03:18 1739
   262  4.8414e-04  1.3752e-06  2.6242e-07  3.2967e-04  1.8292e-04  0:08:26 1738
   263  4.7928e-04  1.3631e-06  2.5827e-07  3.2772e-04  1.8140e-04  0:06:44 1737
   264  4.7872e-04  1.3524e-06  2.5783e-07  3.2577e-04  1.7991e-04  0:05:23 1736

  iter  continuity  x-velocity  y-velocity           k       omega     time/iter
   265  4.7460e-04  1.3409e-06  2.5408e-07  3.2385e-04  1.7846e-04  0:04:19 1735
   266  4.7083e-04  1.3310e-06  2.5308e-07  3.2193e-04  1.7705e-04  0:03:27 1734
   267  4.6516e-04  1.3195e-06  2.4982e-07  3.2002e-04  1.7566e-04  0:08:32 1733
   268  4.6547e-04  1.3095e-06  2.5018e-07  3.1812e-04  1.7431e-04  0:06:49 1732
   269  4.5863e-04  1.3002e-06  2.4633e-07  3.1623e-04  1.7299e-04  0:05:27 1731
   270  4.5915e-04  1.2895e-06  2.4583e-07  3.1434e-04  1.7170e-04  0:04:22 1730
   271  4.5313e-04  1.2792e-06  2.4239e-07  3.1245e-04  1.7045e-04  0:03:29 1729
   272  4.5309e-04  1.2709e-06  2.4097e-07  3.1058e-04  1.6921e-04  0:08:33 1728
   273  4.4960e-04  1.2610e-06  2.3902e-07  3.0872e-04  1.6802e-04  0:06:50 1727
   274  4.4913e-04  1.2532e-06  2.3665e-07  3.0686e-04  1.6685e-04  0:05:28 1726
   275  4.4748e-04  1.2442e-06  2.3559e-07  3.0502e-04  1.6572e-04  0:04:22 1725

  iter  continuity  x-velocity  y-velocity           k       omega     time/iter
   276  4.4315e-04  1.2350e-06  2.3357e-07  3.0319e-04  1.6462e-04  0:03:30 1724
   277  4.4065e-04  1.2261e-06  2.3259e-07  3.0137e-04  1.6356e-04  0:08:32 1723
   278  4.3767e-04  1.2166e-06  2.3170e-07  2.9957e-04  1.6254e-04  0:06:49 1722
   279  4.3167e-04  1.2069e-06  2.2944e-07  2.9777e-04  1.6154e-04  0:05:27 1721
   280  4.2795e-04  1.1969e-06  2.2789e-07  2.9598e-04  1.6058e-04  0:04:22 1720
   281  4.2447e-04  1.1871e-06  2.2652e-07  2.9419e-04  1.5965e-04  0:03:29 1719
   282  4.2081e-04  1.1768e-06  2.2542e-07  2.9241e-04  1.5875e-04  0:02:47 1718
   283  4.1777e-04  1.1685e-06  2.2403e-07  2.9065e-04  1.5788e-04  0:07:57 1717
   284  4.1374e-04  1.1605e-06  2.2235e-07  2.8890e-04  1.5704e-04  0:06:22 1716
   285  4.0954e-04  1.1524e-06  2.2060e-07  2.8715e-04  1.5624e-04  0:05:05 1715
   286  4.0460e-04  1.1424e-06  2.1908e-07  2.8542e-04  1.5546e-04  0:04:04 1714

  iter  continuity  x-velocity  y-velocity           k       omega     time/iter
   287  4.0183e-04  1.1348e-06  2.1706e-07  2.8369e-04  1.5472e-04  0:03:15 1713
   288  3.9959e-04  1.1261e-06  2.1522e-07  2.8197e-04  1.5401e-04  0:08:18 1712
   289  3.9270e-04  1.1175e-06  2.1281e-07  2.8025e-04  1.5334e-04  0:06:38 1711
   290  3.8772e-04  1.1099e-06  2.1124e-07  2.7854e-04  1.5270e-04  0:05:19 1710
   291  3.8281e-04  1.1024e-06  2.0929e-07  2.7683e-04  1.5209e-04  0:04:15 1709
   292  3.7688e-04  1.0955e-06  2.0749e-07  2.7513e-04  1.5150e-04  0:03:24 1708
   293  3.7215e-04  1.0869e-06  2.0605e-07  2.7343e-04  1.5094e-04  0:02:43 1707
   294  3.6905e-04  1.0808e-06  2.0394e-07  2.7176e-04  1.5039e-04  0:07:51 1706
   295  3.6761e-04  1.0731e-06  2.0215e-07  2.7008e-04  1.4988e-04  0:06:17 1705
   296  3.6338e-04  1.0667e-06  2.0005e-07  2.6842e-04  1.4939e-04  0:05:01 1704
   297  3.5506e-04  1.0603e-06  1.9744e-07  2.6676e-04  1.4892e-04  0:04:01 1703

  iter  continuity  x-velocity  y-velocity           k       omega     time/iter
   298  3.5137e-04  1.0530e-06  1.9653e-07  2.6511e-04  1.4847e-04  0:03:13 1702
   299  3.4789e-04  1.0470e-06  1.9397e-07  2.6346e-04  1.4805e-04  0:08:14 1701
   300  3.4719e-04  1.0407e-06  1.9284e-07  2.6183e-04  1.4764e-04  0:06:35 1700
   301  3.4110e-04  1.0348e-06  1.8996e-07  2.6020e-04  1.4726e-04  0:05:16 1699
   302  3.4081e-04  1.0280e-06  1.8937e-07  2.5858e-04  1.4690e-04  0:04:13 1698
   303  3.3411e-04  1.0228e-06  1.8627e-07  2.5697e-04  1.4656e-04  0:03:22 1697
   304  3.3433e-04  1.0173e-06  1.8556e-07  2.5537e-04  1.4622e-04  0:02:41 1696
   305  3.2924e-04  1.0116e-06  1.8254e-07  2.5378e-04  1.4590e-04  0:07:48 1695
   306  3.2975e-04  1.0075e-06  1.8243e-07  2.5219e-04  1.4560e-04  0:06:14 1694
   307  3.2754e-04  1.0022e-06  1.7912e-07  2.5061e-04  1.4530e-04  0:04:59 1693
   308  3.1989e-04  9.9696e-07  1.7763e-07  2.4903e-04  1.4502e-04  0:03:59 1692

  iter  continuity  x-velocity  y-velocity           k       omega     time/iter
   309  3.1883e-04  9.9062e-07  1.7645e-07  2.4746e-04  1.4475e-04  0:03:11 1691
   310  3.1890e-04  9.8564e-07  1.7453e-07  2.4589e-04  1.4448e-04  0:08:11 1690
   311  3.1298e-04  9.8075e-07  1.7267e-07  2.4434e-04  1.4422e-04  0:06:33 1689
   312  3.1193e-04  9.7499e-07  1.7089e-07  2.4279e-04  1.4396e-04  0:05:14 1688
   313  3.0725e-04  9.6936e-07  1.6901e-07  2.4125e-04  1.4369e-04  0:04:11 1687
   314  3.0600e-04  9.6514e-07  1.6719e-07  2.3972e-04  1.4341e-04  0:08:58 1686
   315  3.0509e-04  9.5979e-07  1.6605e-07  2.3819e-04  1.4313e-04  0:07:10 1685
   316  3.0433e-04  9.5564e-07  1.6486e-07  2.3668e-04  1.4285e-04  0:05:44 1684
   317  3.0313e-04  9.5084e-07  1.6348e-07  2.3517e-04  1.4256e-04  0:04:35 1683
   318  3.0118e-04  9.4655e-07  1.6240e-07  2.3367e-04  1.4227e-04  0:03:40 1682
   319  3.0184e-04  9.4103e-07  1.6089e-07  2.3218e-04  1.4196e-04  0:02:56 1681

  iter  continuity  x-velocity  y-velocity           k       omega     time/iter
   320  2.9853e-04  9.3554e-07  1.5954e-07  2.3070e-04  1.4166e-04  0:07:56 1680
   321  2.9600e-04  9.3186e-07  1.5774e-07  2.2922e-04  1.4135e-04  0:06:21 1679
   322  2.9545e-04  9.2697e-07  1.5596e-07  2.2776e-04  1.4102e-04  0:05:05 1678
   323  2.9698e-04  9.2127e-07  1.5492e-07  2.2630e-04  1.4068e-04  0:04:04 1677
   324  2.9435e-04  9.1574e-07  1.5394e-07  2.2485e-04  1.4032e-04  0:03:15 1676
   325  2.9333e-04  9.1104e-07  1.5248e-07  2.2342e-04  1.3995e-04  0:08:11 1675
   326  2.9196e-04  9.0639e-07  1.5102e-07  2.2199e-04  1.3958e-04  0:06:32 1674
   327  2.9289e-04  9.0211e-07  1.4990e-07  2.2057e-04  1.3920e-04  0:05:14 1673
   328  2.9040e-04  8.9678e-07  1.4860e-07  2.1916e-04  1.3880e-04  0:04:11 1672
   329  2.8599e-04  8.9194e-07  1.4588e-07  2.1776e-04  1.3841e-04  0:03:20 1671
   330  2.8850e-04  8.8780e-07  1.4655e-07  2.1637e-04  1.3800e-04  0:02:40 1670

  iter  continuity  x-velocity  y-velocity           k       omega     time/iter
   331  2.8644e-04  8.8234e-07  1.4441e-07  2.1499e-04  1.3758e-04  0:07:42 1669
   332  2.8782e-04  8.7791e-07  1.4496e-07  2.1363e-04  1.3714e-04  0:06:09 1668
   333  2.8182e-04  8.7407e-07  1.4264e-07  2.1226e-04  1.3669e-04  0:04:55 1667
   334  2.8654e-04  8.7136e-07  1.4318e-07  2.1091e-04  1.3623e-04  0:03:56 1666
   335  2.8356e-04  8.6655e-07  1.4123e-07  2.0957e-04  1.3577e-04  0:03:09 1665
   336  2.8220e-04  8.6158e-07  1.4068e-07  2.0824e-04  1.3530e-04  0:08:04 1664
   337  2.8078e-04  8.5729e-07  1.3983e-07  2.0692e-04  1.3482e-04  0:06:27 1663
   338  2.7806e-04  8.5234e-07  1.3943e-07  2.0560e-04  1.3434e-04  0:05:09 1662
   339  2.7979e-04  8.4888e-07  1.3862e-07  2.0430e-04  1.3385e-04  0:04:07 1661
   340  2.7681e-04  8.4421e-07  1.3837e-07  2.0300e-04  1.3336e-04  0:03:18 1660
   341  2.7978e-04  8.4050e-07  1.3711e-07  2.0170e-04  1.3287e-04  0:02:38 1659

  iter  continuity  x-velocity  y-velocity           k       omega     time/iter
   342  2.7747e-04  8.3655e-07  1.3660e-07  2.0041e-04  1.3236e-04  0:07:38 1658
   343  2.7593e-04  8.3326e-07  1.3568e-07  1.9912e-04  1.3185e-04  0:06:06 1657
   344  2.7510e-04  8.2802e-07  1.3533e-07  1.9785e-04  1.3135e-04  0:04:53 1656
   345  2.7536e-04  8.2369e-07  1.3485e-07  1.9658e-04  1.3084e-04  0:03:54 1655
   346  2.7262e-04  8.1966e-07  1.3447e-07  1.9532e-04  1.3033e-04  0:03:07 1654
   347  2.7181e-04  8.1622e-07  1.3371e-07  1.9407e-04  1.2983e-04  0:08:00 1653
   348  2.7083e-04  8.1257e-07  1.3287e-07  1.9282e-04  1.2932e-04  0:06:24 1652
   349  2.6982e-04  8.0888e-07  1.3254e-07  1.9158e-04  1.2881e-04  0:05:07 1651
   350  2.6733e-04  8.0590e-07  1.3185e-07  1.9035e-04  1.2829e-04  0:04:05 1650
   351  2.6819e-04  8.0276e-07  1.3150e-07  1.8911e-04  1.2777e-04  0:03:16 1649
   352  2.6967e-04  8.0024e-07  1.3117e-07  1.8789e-04  1.2725e-04  0:02:37 1648

  iter  continuity  x-velocity  y-velocity           k       omega     time/iter
   353  2.6416e-04  7.9686e-07  1.3129e-07  1.8667e-04  1.2673e-04  0:07:35 1647
   354  2.6371e-04  7.9418e-07  1.3064e-07  1.8545e-04  1.2621e-04  0:06:04 1646
   355  2.6301e-04  7.9092e-07  1.3019e-07  1.8423e-04  1.2569e-04  0:04:51 1645
   356  2.6462e-04  7.8888e-07  1.2949e-07  1.8302e-04  1.2518e-04  0:03:52 1644
   357  2.6304e-04  7.8494e-07  1.2987e-07  1.8182e-04  1.2466e-04  0:03:06 1643
   358  2.6232e-04  7.8222e-07  1.2951e-07  1.8062e-04  1.2414e-04  0:07:57 1642
   359  2.5908e-04  7.7965e-07  1.2949e-07  1.7942e-04  1.2363e-04  0:06:21 1641
   360  2.6043e-04  7.7572e-07  1.2848e-07  1.7821e-04  1.2311e-04  0:05:05 1640
   361  2.6018e-04  7.7299e-07  1.2827e-07  1.7699e-04  1.2259e-04  0:04:04 1639
   362  2.5942e-04  7.7073e-07  1.2780e-07  1.7579e-04  1.2207e-04  0:08:42 1638
   363  2.5972e-04  7.6788e-07  1.2703e-07  1.7457e-04  1.2156e-04  0:06:58 1637

  iter  continuity  x-velocity  y-velocity           k       omega     time/iter
   364  2.5703e-04  7.6533e-07  1.2682e-07  1.7338e-04  1.2104e-04  0:05:34 1636
   365  2.5583e-04  7.6312e-07  1.2651e-07  1.7217e-04  1.2053e-04  0:04:27 1635
   366  2.5518e-04  7.5996e-07  1.2575e-07  1.7097e-04  1.2001e-04  0:03:33 1634
   367  2.5282e-04  7.5775e-07  1.2574e-07  1.6976e-04  1.1950e-04  0:02:51 1633
   368  2.5112e-04  7.5555e-07  1.2571e-07  1.6856e-04  1.1898e-04  0:07:43 1632
   369  2.5346e-04  7.5454e-07  1.2546e-07  1.6734e-04  1.1846e-04  0:06:10 1631
   370  2.5138e-04  7.5057e-07  1.2501e-07  1.6613e-04  1.1794e-04  0:04:56 1630
   371  2.4976e-04  7.4795e-07  1.2450e-07  1.6492e-04  1.1742e-04  0:03:57 1629
   372  2.5089e-04  7.4564e-07  1.2402e-07  1.6370e-04  1.1691e-04  0:03:09 1628
   373  2.4668e-04  7.4293e-07  1.2277e-07  1.6249e-04  1.1639e-04  0:07:57 1627
   374  2.4615e-04  7.4232e-07  1.2406e-07  1.6128e-04  1.1586e-04  0:06:21 1626

  iter  continuity  x-velocity  y-velocity           k       omega     time/iter
   375  2.4484e-04  7.3971e-07  1.2249e-07  1.6008e-04  1.1533e-04  0:05:05 1625
   376  2.4588e-04  7.3848e-07  1.2367e-07  1.5889e-04  1.1480e-04  0:04:04 1624
   377  2.4460e-04  7.3730e-07  1.2195e-07  1.5770e-04  1.1427e-04  0:03:15 1623
   378  2.4479e-04  7.3545e-07  1.2301e-07  1.5652e-04  1.1373e-04  0:02:36 1622
   379  2.4213e-04  7.3352e-07  1.2156e-07  1.5529e-04  1.1318e-04  0:07:29 1621
   380  2.4411e-04  7.3158e-07  1.2316e-07  1.5407e-04  1.1265e-04  0:05:59 1620
   381  2.4055e-04  7.2997e-07  1.2184e-07  1.5284e-04  1.1211e-04  0:04:47 1619
   382  2.4370e-04  7.2942e-07  1.2292e-07  1.5161e-04  1.1156e-04  0:03:49 1618
   383  2.4212e-04  7.2707e-07  1.2129e-07  1.5037e-04  1.1102e-04  0:03:03 1617
   384  2.4070e-04  7.2600e-07  1.2257e-07  1.4913e-04  1.1047e-04  0:07:50 1616
   385  2.4112e-04  7.2385e-07  1.2063e-07  1.4789e-04  1.0992e-04  0:06:16 1615

  iter  continuity  x-velocity  y-velocity           k       omega     time/iter
   386  2.4194e-04  7.2216e-07  1.2235e-07  1.4665e-04  1.0937e-04  0:05:00 1614
   387  2.3871e-04  7.2110e-07  1.2100e-07  1.4540e-04  1.0881e-04  0:04:00 1613
   388  2.3857e-04  7.1961e-07  1.2043e-07  1.4415e-04  1.0826e-04  0:03:12 1612
   389  2.4105e-04  7.1821e-07  1.2180e-07  1.4290e-04  1.0770e-04  0:02:33 1611
   390  2.4003e-04  7.1611e-07  1.1989e-07  1.4167e-04  1.0717e-04  0:07:25 1610
   391  2.3817e-04  7.1441e-07  1.1959e-07  1.4044e-04  1.0656e-04  0:05:56 1609
   392  2.3856e-04  7.1295e-07  1.1956e-07  1.3921e-04  1.0601e-04  0:04:44 1608
   393  2.3552e-04  7.1173e-07  1.1988e-07  1.3797e-04  1.0543e-04  0:03:47 1607
   394  2.4188e-04  7.1150e-07  1.2224e-07  1.3675e-04  1.0486e-04  0:03:02 1606
   395  2.4237e-04  7.1037e-07  1.2038e-07  1.3552e-04  1.0427e-04  0:02:25 1605
   396  2.4083e-04  7.0938e-07  1.1958e-07  1.3430e-04  1.0369e-04  0:07:17 1604

  iter  continuity  x-velocity  y-velocity           k       omega     time/iter
   397  2.3954e-04  7.0791e-07  1.1944e-07  1.3307e-04  1.0309e-04  0:05:49 1603
   398  2.3956e-04  7.0727e-07  1.1950e-07  1.3185e-04  1.0250e-04  0:04:39 1602
   399  2.4178e-04  7.0596e-07  1.1980e-07  1.3061e-04  1.0187e-04  0:03:43 1601
   400  2.4156e-04  7.0483e-07  1.1988e-07  1.2935e-04  1.0128e-04  0:02:59 1600
   401  2.4328e-04  7.0472e-07  1.2248e-07  1.2808e-04  1.0065e-04  0:07:43 1599
   402  2.4252e-04  7.0399e-07  1.2043e-07  1.2683e-04  1.0005e-04  0:06:10 1598
   403  2.4056e-04  7.0281e-07  1.2023e-07  1.2558e-04  9.9438e-05  0:04:56 1597
   404  2.4258e-04  7.0208e-07  1.2009e-07  1.2436e-04  9.8820e-05  0:03:56 1596
   405  2.4328e-04  7.0078e-07  1.2032e-07  1.2315e-04  9.8221e-05  0:08:28 1595
   406  2.4243e-04  6.9996e-07  1.2030e-07  1.2196e-04  9.7610e-05  0:06:46 1594
   407  2.4299e-04  6.9931e-07  1.2049e-07  1.2077e-04  9.6998e-05  0:05:25 1593

  iter  continuity  x-velocity  y-velocity           k       omega     time/iter
   408  2.4465e-04  6.9841e-07  1.2246e-07  1.1958e-04  9.6369e-05  0:04:20 1592
   409  2.4336e-04  6.9855e-07  1.2058e-07  1.1840e-04  9.5747e-05  0:03:28 1591
   410  2.4587e-04  6.9698e-07  1.2018e-07  1.1723e-04  9.5124e-05  0:08:04 1590
   411  2.4580e-04  6.9655e-07  1.2021e-07  1.1607e-04  9.4500e-05  0:06:27 1589
   412  2.4439e-04  6.9527e-07  1.1994e-07  1.1491e-04  9.3874e-05  0:05:09 1588
   413  2.4368e-04  6.9517e-07  1.2009e-07  1.1376e-04  9.3245e-05  0:04:07 1587
   414  2.4921e-04  6.9472e-07  1.2213e-07  1.1263e-04  9.2602e-05  0:03:18 1586
   415  2.4773e-04  6.9334e-07  1.1989e-07  1.1149e-04  9.1959e-05  0:02:38 1585
   416  2.4471e-04  6.9211e-07  1.1949e-07  1.1036e-04  9.1299e-05  0:07:23 1584
   417  2.5018e-04  6.9304e-07  1.2142e-07  1.0925e-04  9.0659e-05  0:05:54 1583
   418  2.4768e-04  6.9060e-07  1.1957e-07  1.0816e-04  8.9997e-05  0:04:43 1582

  iter  continuity  x-velocity  y-velocity           k       omega     time/iter
   419  2.5065e-04  6.8928e-07  1.2097e-07  1.0708e-04  8.9338e-05  0:03:46 1581
   420  2.5041e-04  6.8851e-07  1.1885e-07  1.0601e-04  8.8692e-05  0:03:01 1580
   421  2.5053e-04  6.8805e-07  1.2032e-07  1.0493e-04  8.8059e-05  0:07:41 1579
   422  2.4988e-04  6.8687e-07  1.1861e-07  1.0388e-04  8.7410e-05  0:06:08 1578
   423  2.4736e-04  6.8592e-07  1.1841e-07  1.0282e-04  8.6788e-05  0:04:54 1577
   424  2.5253e-04  6.8544e-07  1.1849e-07  1.0179e-04  8.6163e-05  0:03:55 1576
   425  2.5248e-04  6.8567e-07  1.1831e-07  1.0076e-04  8.5546e-05  0:03:08 1575
   426  2.5129e-04  6.8610e-07  1.2015e-07  9.9758e-05  8.4932e-05  0:02:30 1574
   427  2.5019e-04  6.8474e-07  1.1791e-07  9.8763e-05  8.4316e-05  0:07:15 1573
   428  2.5261e-04  6.8381e-07  1.1750e-07  9.7774e-05  8.3700e-05  0:05:48 1572
   429  2.5475e-04  6.8416e-07  1.2028e-07  9.6801e-05  8.3108e-05  0:04:38 1571

  iter  continuity  x-velocity  y-velocity           k       omega     time/iter
   430  2.5140e-04  6.8252e-07  1.1828e-07  9.5832e-05  8.2509e-05  0:03:42 1570
   431  2.5181e-04  6.8238e-07  1.1726e-07  9.4872e-05  8.1916e-05  0:02:58 1569
   432  2.5530e-04  6.8151e-07  1.1926e-07  9.3922e-05  8.1322e-05  0:07:36 1568
   433  2.5364e-04  6.8150e-07  1.1712e-07  9.2965e-05  8.0753e-05  0:06:04 1567
   434  2.5612e-04  6.8020e-07  1.1652e-07  9.2006e-05  8.0160e-05  0:04:51 1566
   435  2.5325e-04  6.7960e-07  1.1623e-07  9.1075e-05  7.9564e-05  0:03:53 1565
   436  2.5536e-04  6.7989e-07  1.1857e-07  9.0160e-05  7.8974e-05  0:03:06 1564
   437  2.5564e-04  6.7840e-07  1.1630e-07  8.9241e-05  7.8409e-05  0:02:29 1563
   438  2.5732e-04  6.7833e-07  1.1584e-07  8.8328e-05  7.7848e-05  0:07:11 1562
   439  2.5801e-04  6.7722e-07  1.1552e-07  8.7435e-05  7.7283e-05  0:05:45 1561
   440  2.5598e-04  6.7705e-07  1.1547e-07  8.6538e-05  7.6699e-05  0:04:36 1560

  iter  continuity  x-velocity  y-velocity           k       omega     time/iter
   441  2.5549e-04  6.7650e-07  1.1506e-07  8.5640e-05  7.6133e-05  0:03:40 1559
   442  2.5545e-04  6.7583e-07  1.1489e-07  8.4744e-05  7.5568e-05  0:02:56 1558
   443  2.5675e-04  6.7491e-07  1.1465e-07  8.3859e-05  7.5019e-05  0:07:32 1557
   444  2.6073e-04  6.7500e-07  1.1674e-07  8.2987e-05  7.4456e-05  0:06:02 1556
   445  2.5707e-04  6.7385e-07  1.1507e-07  8.2116e-05  7.3913e-05  0:04:49 1555
   446  2.5781e-04  6.7370e-07  1.1462e-07  8.1262e-05  7.3381e-05  0:03:51 1554
   447  2.5743e-04  6.7207e-07  1.1433e-07  8.0405e-05  7.2842e-05  0:03:05 1553
   448  2.5922e-04  6.7093e-07  1.1369e-07  7.9566e-05  7.2296e-05  0:02:28 1552
   449  2.5669e-04  6.7041e-07  1.1336e-07  7.8735e-05  7.1760e-05  0:07:08 1551
   450  2.5814e-04  6.6978e-07  1.1328e-07  7.7908e-05  7.1248e-05  0:05:42 1550
   451  2.5825e-04  6.6913e-07  1.1320e-07  7.7086e-05  7.0728e-05  0:04:34 1549

  iter  continuity  x-velocity  y-velocity           k       omega     time/iter
   452  2.5823e-04  6.6739e-07  1.1259e-07  7.6276e-05  7.0230e-05  0:03:39 1548
   453  2.6089e-04  6.6718e-07  1.1276e-07  7.5475e-05  6.9720e-05  0:08:04 1547
   454  2.5890e-04  6.6640e-07  1.1248e-07  7.4682e-05  6.9218e-05  0:06:27 1546
   455  2.5952e-04  6.6482e-07  1.1187e-07  7.3901e-05  6.8724e-05  0:05:10 1545
   456  2.6112e-04  6.6453e-07  1.1199e-07  7.3124e-05  6.8218e-05  0:04:08 1544
   457  2.6079e-04  6.6344e-07  1.1169e-07  7.2348e-05  6.7734e-05  0:03:18 1543
   458  2.6288e-04  6.6292e-07  1.1120e-07  7.1586e-05  6.7240e-05  0:02:38 1542
   459  2.6007e-04  6.6201e-07  1.1063e-07  7.0833e-05  6.6761e-05  0:07:15 1541
   460  2.6165e-04  6.6019e-07  1.1034e-07  7.0080e-05  6.6270e-05  0:05:48 1540
   461  2.6050e-04  6.6028e-07  1.1066e-07  6.9327e-05  6.5795e-05  0:04:38 1539
   462  2.6137e-04  6.5812e-07  1.1047e-07  6.8584e-05  6.5306e-05  0:03:42 1538

  iter  continuity  x-velocity  y-velocity           k       omega     time/iter
   463  2.6283e-04  6.5808e-07  1.1015e-07  6.7855e-05  6.4826e-05  0:02:58 1537
   464  2.6185e-04  6.5774e-07  1.0961e-07  6.7140e-05  6.4334e-05  0:07:29 1536
   465  2.6109e-04  6.5720e-07  1.0926e-07  6.6429e-05  6.3847e-05  0:05:59 1535
   466  2.6184e-04  6.5533e-07  1.0890e-07  6.5730e-05  6.3370e-05  0:04:47 1534
   467  2.6146e-04  6.5330e-07  1.0878e-07  6.5037e-05  6.2877e-05  0:03:50 1533
   468  2.6303e-04  6.5344e-07  1.0842e-07  6.4342e-05  6.2414e-05  0:03:04 1532
   469  2.6420e-04  6.5185e-07  1.0835e-07  6.3658e-05  6.1957e-05  0:02:27 1531
   470  2.6520e-04  6.4964e-07  1.0857e-07  6.2981e-05  6.1507e-05  0:07:03 1530
   471  2.6550e-04  6.4910e-07  1.0857e-07  6.2309e-05  6.1077e-05  0:05:38 1529
   472  2.7004e-04  6.4680e-07  1.0815e-07  6.1634e-05  6.0645e-05  0:04:31 1528
   473  2.6818e-04  6.4680e-07  1.0813e-07  6.0975e-05  6.0230e-05  0:03:36 1527

  iter  continuity  x-velocity  y-velocity           k       omega     time/iter
   474  2.6666e-04  6.4435e-07  1.0789e-07  6.0314e-05  5.9811e-05  0:02:53 1526
   475  2.6672e-04  6.4343e-07  1.0735e-07  5.9667e-05  5.9388e-05  0:07:23 1525
   476  2.6624e-04  6.4226e-07  1.0697e-07  5.9017e-05  5.8975e-05  0:05:54 1524
   477  2.6574e-04  6.4140e-07  1.0618e-07  5.8377e-05  5.8550e-05  0:04:43 1523
   478  2.6392e-04  6.4007e-07  1.0585e-07  5.7740e-05  5.8147e-05  0:03:46 1522
   479  2.6412e-04  6.3941e-07  1.0548e-07  5.7109e-05  5.7756e-05  0:03:01 1521
   480  2.6316e-04  6.3811e-07  1.0523e-07  5.6487e-05  5.7378e-05  0:07:29 1520
   481  2.6473e-04  6.3723e-07  1.0472e-07  5.5856e-05  5.7001e-05  0:05:59 1519
   482  2.6831e-04  6.3682e-07  1.0453e-07  5.5240e-05  5.6627e-05  0:04:47 1518
   483  2.6478e-04  6.3584e-07  1.0415e-07  5.4628e-05  5.6240e-05  0:03:49 1517
   484  2.6330e-04  6.3371e-07  1.0384e-07  5.4017e-05  5.5852e-05  0:03:03 1516

  iter  continuity  x-velocity  y-velocity           k       omega     time/iter
   485  2.6541e-04  6.3226e-07  1.0368e-07  5.3417e-05  5.5458e-05  0:02:27 1515
   486  2.6563e-04  6.3081e-07  1.0351e-07  5.2822e-05  5.5067e-05  0:07:00 1514
   487  2.6657e-04  6.2925e-07  1.0319e-07  5.2230e-05  5.4680e-05  0:05:36 1513
   488  2.6493e-04  6.2815e-07  1.0277e-07  5.1645e-05  5.4310e-05  0:04:28 1512
   489  2.6533e-04  6.2601e-07  1.0255e-07  5.1063e-05  5.3945e-05  0:03:35 1511
   490  2.6450e-04  6.2432e-07  1.0241e-07  5.0491e-05  5.3582e-05  0:02:52 1510
   491  2.6512e-04  6.2329e-07  1.0207e-07  4.9918e-05  5.3224e-05  0:07:19 1509
   492  2.6853e-04  6.2134e-07  1.0184e-07  4.9350e-05  5.2873e-05  0:05:51 1508
   493  2.6567e-04  6.2001e-07  1.0174e-07  4.8784e-05  5.2520e-05  0:04:41 1507
   494  2.6828e-04  6.1814e-07  1.0108e-07  4.8218e-05  5.2170e-05  0:03:44 1506
   495  2.6344e-04  6.1656e-07  1.0093e-07  4.7657e-05  5.1833e-05  0:02:59 1505

  iter  continuity  x-velocity  y-velocity           k       omega     time/iter
   496  2.6907e-04  6.1410e-07  1.0043e-07  4.7102e-05  5.1496e-05  0:07:24 1504
   497  2.6444e-04  6.1269e-07  1.0053e-07  4.6558e-05  5.1171e-05  0:05:55 1503
   498  2.6712e-04  6.1117e-07  9.9893e-08  4.6007e-05  5.0848e-05  0:04:44 1502
   499  2.6709e-04  6.1039e-07  9.9574e-08  4.5465e-05  5.0531e-05  0:03:47 1501
   500  2.6393e-04  6.0749e-07  9.9486e-08  4.4933e-05  5.0217e-05  0:03:01 1500
   501  2.6569e-04  6.0661e-07  9.9225e-08  4.4406e-05  4.9909e-05  0:07:25 1499
   502  2.6665e-04  6.0467e-07  9.8799e-08  4.3878e-05  4.9606e-05  0:05:56 1498
   503  2.6615e-04  6.0353e-07  9.8620e-08  4.3357e-05  4.9303e-05  0:04:44 1497
   504  2.6331e-04  6.0015e-07  9.8196e-08  4.2840e-05  4.8985e-05  0:03:47 1496
   505  2.6779e-04  5.9907e-07  9.7645e-08  4.2324e-05  4.8682e-05  0:03:02 1495
   506  2.6483e-04  5.9695e-07  9.7423e-08  4.1804e-05  4.8381e-05  0:07:24 1494

  iter  continuity  x-velocity  y-velocity           k       omega     time/iter
   507  2.6687e-04  5.9625e-07  9.7490e-08  4.1301e-05  4.8088e-05  0:05:55 1493
   508  2.6523e-04  5.9390e-07  9.7127e-08  4.0799e-05  4.7801e-05  0:04:44 1492
   509  2.6546e-04  5.9226e-07  9.7320e-08  4.0308e-05  4.7519e-05  0:03:47 1491
   510  2.6429e-04  5.8992e-07  9.7305e-08  3.9823e-05  4.7233e-05  0:03:01 1490
   511  2.6728e-04  5.8873e-07  9.7008e-08  3.9347e-05  4.6947e-05  0:02:25 1489
   512  2.6587e-04  5.8663e-07  9.6828e-08  3.8875e-05  4.6653e-05  0:06:54 1488
   513  2.6463e-04  5.8480e-07  9.6520e-08  3.8408e-05  4.6385e-05  0:05:31 1487
   514  2.6677e-04  5.8117e-07  9.6081e-08  3.7931e-05  4.6107e-05  0:04:24 1486
   515  2.6493e-04  5.7980e-07  9.5873e-08  3.7472e-05  4.5842e-05  0:03:31 1485
   516  2.6285e-04  5.7818e-07  9.5296e-08  3.7022e-05  4.5569e-05  0:02:49 1484
   517  2.6332e-04  5.7587e-07  9.5070e-08  3.6572e-05  4.5311e-05  0:07:12 1483

  iter  continuity  x-velocity  y-velocity           k       omega     time/iter
   518  2.6222e-04  5.7375e-07  9.4879e-08  3.6123e-05  4.5047e-05  0:05:45 1482
   519  2.6152e-04  5.7177e-07  9.4507e-08  3.5680e-05  4.4795e-05  0:04:36 1481
   520  2.6187e-04  5.6952e-07  9.4261e-08  3.5246e-05  4.4542e-05  0:03:41 1480
   521  2.5999e-04  5.6761e-07  9.4117e-08  3.4818e-05  4.4296e-05  0:02:56 1479
   522  2.6026e-04  5.6542e-07  9.3664e-08  3.4399e-05  4.4044e-05  0:02:21 1478
   523  2.6288e-04  5.6385e-07  9.3296e-08  3.3986e-05  4.3801e-05  0:06:48 1477
   524  2.6112e-04  5.6122e-07  9.3332e-08  3.3568e-05  4.3558e-05  0:05:26 1476
   525  2.6040e-04  5.6011e-07  9.2891e-08  3.3158e-05  4.3327e-05  0:04:21 1475
   526  2.5945e-04  5.5884e-07  9.2528e-08  3.2745e-05  4.3091e-05  0:03:29 1474
   527  2.5951e-04  5.5621e-07  9.2644e-08  3.2343e-05  4.2866e-05  0:02:47 1473
   528  2.5538e-04  5.5485e-07  9.2193e-08  3.1941e-05  4.2640e-05  0:07:08 1472

  iter  continuity  x-velocity  y-velocity           k       omega     time/iter
   529  2.5775e-04  5.5386e-07  9.1634e-08  3.1546e-05  4.2436e-05  0:05:42 1471
   530  2.5564e-04  5.5208e-07  9.1688e-08  3.1177e-05  4.2214e-05  0:04:33 1470
   531  2.6042e-04  5.4979e-07  9.1543e-08  3.0817e-05  4.2008e-05  0:03:39 1469
   532  2.5530e-04  5.4789e-07  9.1362e-08  3.0458e-05  4.1798e-05  0:02:55 1468
   533  2.5558e-04  5.4637e-07  9.0704e-08  3.0099e-05  4.1598e-05  0:02:20 1467
   534  2.5365e-04  5.4479e-07  9.0841e-08  2.9727e-05  4.1397e-05  0:06:45 1466
   535  2.5536e-04  5.4289e-07  9.0562e-08  2.9354e-05  4.1194e-05  0:05:24 1465
   536  2.5121e-04  5.4062e-07  9.0229e-08  2.8980e-05  4.0995e-05  0:04:19 1464
   537  2.4804e-04  5.3997e-07  8.9230e-08  2.8622e-05  4.0799e-05  0:03:27 1463
   538  2.5090e-04  5.3710e-07  8.9679e-08  2.8281e-05  4.0611e-05  0:02:45 1462
   539  2.5425e-04  5.3565e-07  8.8788e-08  2.7943e-05  4.0424e-05  0:07:04 1461

  iter  continuity  x-velocity  y-velocity           k       omega     time/iter
   540  2.5043e-04  5.3422e-07  8.9487e-08  2.7616e-05  4.0240e-05  0:05:39 1460
   541  2.4992e-04  5.3249e-07  8.8225e-08  2.7287e-05  4.0055e-05  0:04:31 1459
   542  2.5259e-04  5.3090e-07  8.8725e-08  2.6955e-05  3.9873e-05  0:08:28 1458
   543  2.5149e-04  5.2963e-07  8.7995e-08  2.6633e-05  3.9699e-05  0:06:46 1457
   544  2.4705e-04  5.2881e-07  8.8419e-08  2.6317e-05  3.9520e-05  0:05:25 1456
   545  2.4789e-04  5.2610e-07  8.7285e-08  2.6002e-05  3.9352e-05  0:04:20 1455
   546  2.5230e-04  5.2482e-07  8.8025e-08  2.5681e-05  3.9176e-05  0:03:28 1454
   547  2.5148e-04  5.2260e-07  8.7044e-08  2.5364e-05  3.9010e-05  0:07:37 1453
   548  2.4972e-04  5.2213e-07  8.7482e-08  2.5064e-05  3.8846e-05  0:06:05 1452
   549  2.4800e-04  5.2021e-07  8.6642e-08  2.4771e-05  3.8686e-05  0:04:52 1451
   550  2.4908e-04  5.1894e-07  8.6183e-08  2.4479e-05  3.8525e-05  0:03:53 1450

  iter  continuity  x-velocity  y-velocity           k       omega     time/iter
   551  2.4855e-04  5.1742e-07  8.6200e-08  2.4195e-05  3.8370e-05  0:03:07 1449
   552  2.4990e-04  5.1634e-07  8.7012e-08  2.3899e-05  3.8210e-05  0:02:29 1448
   553  2.4780e-04  5.1445e-07  8.5936e-08  2.3611e-05  3.8061e-05  0:06:49 1447
   554  2.4518e-04  5.1170e-07  8.5635e-08  2.3323e-05  3.7902e-05  0:05:27 1446
   555  2.4419e-04  5.1124e-07  8.4899e-08  2.3053e-05  3.7758e-05  0:04:21 1445
   556  2.4223e-04  5.0923e-07  8.5031e-08  2.2782e-05  3.7607e-05  0:03:29 1444
   557  2.4429e-04  5.0730e-07  8.4672e-08  2.2520e-05  3.7469e-05  0:02:47 1443
   558  2.4363e-04  5.0549e-07  8.4420e-08  2.2260e-05  3.7322e-05  0:07:02 1442
   559  2.4275e-04  5.0412e-07  8.4237e-08  2.2010e-05  3.7187e-05  0:05:37 1441
   560  2.4582e-04  5.0342e-07  8.3715e-08  2.1757e-05  3.7049e-05  0:04:30 1440
   561  2.4354e-04  5.0084e-07  8.3548e-08  2.1515e-05  3.6915e-05  0:03:36 1439

  iter  continuity  x-velocity  y-velocity           k       omega     time/iter
   562  2.4492e-04  5.0004e-07  8.3383e-08  2.1277e-05  3.6777e-05  0:02:52 1438
   563  2.4307e-04  4.9705e-07  8.3390e-08  2.1040e-05  3.6644e-05  0:07:05 1437
   564  2.4393e-04  4.9661e-07  8.2898e-08  2.0807e-05  3.6508e-05  0:05:40 1436
   565  2.4057e-04  4.9491e-07  8.2461e-08  2.0570e-05  3.6385e-05  0:04:32 1435
   566  2.4150e-04  4.9370e-07  8.2394e-08  2.0334e-05  3.6251e-05  0:03:37 1434
   567  2.3784e-04  4.9114e-07  8.1907e-08  2.0111e-05  3.6126e-05  0:02:54 1433
   568  2.4080e-04  4.9020e-07  8.1780e-08  1.9888e-05  3.6001e-05  0:02:19 1432
   569  2.4189e-04  4.8826e-07  8.1442e-08  1.9669e-05  3.5875e-05  0:06:37 1431
   570  2.4237e-04  4.8718e-07  8.1322e-08  1.9452e-05  3.5751e-05  0:05:18 1430
   571  2.4367e-04  4.8560e-07  8.1215e-08  1.9242e-05  3.5635e-05  0:04:14 1429
   572  2.4171e-04  4.8436e-07  8.1219e-08  1.9030e-05  3.5512e-05  0:03:23 1428

  iter  continuity  x-velocity  y-velocity           k       omega     time/iter
   573  2.4170e-04  4.8182e-07  8.0907e-08  1.8828e-05  3.5395e-05  0:02:42 1427
   574  2.4032e-04  4.8081e-07  8.0593e-08  1.8621e-05  3.5280e-05  0:06:55 1426
   575  2.4234e-04  4.7903e-07  8.0292e-08  1.8421e-05  3.5118e-05  0:05:32 1425
   576  2.3837e-04  4.7778e-07  8.0349e-08  1.8221e-05  3.4954e-05  0:04:25 1424
   577  2.4109e-04  4.7607e-07  7.9946e-08  1.8035e-05  3.4794e-05  0:03:32 1423
   578  2.3771e-04  4.7386e-07  7.9869e-08  1.7854e-05  3.4638e-05  0:02:49 1422
   579  2.3860e-04  4.7165e-07  7.9245e-08  1.7670e-05  3.4483e-05  0:02:15 1421
   580  2.3777e-04  4.7095e-07  7.9347e-08  1.7491e-05  3.4329e-05  0:06:32 1420
   581  2.3819e-04  4.6834e-07  7.8760e-08  1.7318e-05  3.4185e-05  0:05:14 1419
   582  2.3713e-04  4.6720e-07  7.8320e-08  1.7143e-05  3.4040e-05  0:04:11 1418
   583  2.3835e-04  4.6478e-07  7.8150e-08  1.6976e-05  3.3896e-05  0:03:20 1417

  iter  continuity  x-velocity  y-velocity           k       omega     time/iter
   584  2.3622e-04  4.6348e-07  7.7764e-08  1.6807e-05  3.3754e-05  0:02:40 1416
   585  2.3609e-04  4.6204e-07  7.7430e-08  1.6630e-05  3.3612e-05  0:06:51 1415
   586  2.3606e-04  4.6011e-07  7.6637e-08  1.6472e-05  3.3477e-05  0:05:29 1414
   587  2.3628e-04  4.5856e-07  7.6383e-08  1.6304e-05  3.3338e-05  0:04:23 1413
   588  2.3704e-04  4.5675e-07  7.6318e-08  1.6140e-05  3.3208e-05  0:03:30 1412
   589  2.3844e-04  4.5547e-07  7.5726e-08  1.5983e-05  3.3069e-05  0:02:48 1411
   590  2.3753e-04  4.5219e-07  7.5632e-08  1.5827e-05  3.2936e-05  0:06:56 1410
   591  2.3493e-04  4.5087e-07  7.5155e-08  1.5672e-05  3.2802e-05  0:05:33 1409
   592  2.3379e-04  4.4969e-07  7.4933e-08  1.5517e-05  3.2673e-05  0:04:26 1408
   593  2.3280e-04  4.4797e-07  7.4632e-08  1.5370e-05  3.2545e-05  0:03:33 1407
   594  2.3591e-04  4.4595e-07  7.4375e-08  1.5221e-05  3.2416e-05  0:02:50 1406

  iter  continuity  x-velocity  y-velocity           k       omega     time/iter
   595  2.3598e-04  4.4394e-07  7.3781e-08  1.5076e-05  3.2285e-05  0:06:57 1405
   596  2.3259e-04  4.4247e-07  7.3611e-08  1.4929e-05  3.2158e-05  0:05:33 1404
   597  2.3397e-04  4.3997e-07  7.3440e-08  1.4789e-05  3.2034e-05  0:04:26 1403
   598  2.3458e-04  4.3791e-07  7.3050e-08  1.4648e-05  3.1907e-05  0:03:33 1402
   599  2.3320e-04  4.3612e-07  7.2789e-08  1.4504e-05  3.1783e-05  0:02:50 1401
   600  2.3312e-04  4.3415e-07  7.2314e-08  1.4365e-05  3.1658e-05  0:02:16 1400
   601  2.3139e-04  4.3177e-07  7.2054e-08  1.4229e-05  3.1540e-05  0:06:29 1399
   602  2.2824e-04  4.2992e-07  7.1293e-08  1.4096e-05  3.1416e-05  0:05:11 1398
   603  2.2956e-04  4.2923e-07  7.1266e-08  1.3964e-05  3.1295e-05  0:04:08 1397
   604  2.2716e-04  4.2655e-07  7.0735e-08  1.3833e-05  3.1177e-05  0:03:19 1396
   605  2.2830e-04  4.2525e-07  7.0490e-08  1.3697e-05  3.1059e-05  0:02:39 1395

  iter  continuity  x-velocity  y-velocity           k       omega     time/iter
   606  2.2862e-04  4.2262e-07  7.0299e-08  1.3572e-05  3.0938e-05  0:06:46 1394
   607  2.2797e-04  4.1939e-07  6.9846e-08  1.3434e-05  3.0820e-05  0:05:24 1393
   608  2.2957e-04  4.1860e-07  6.9294e-08  1.3311e-05  3.0702e-05  0:04:19 1392
   609  2.2661e-04  4.1630e-07  6.8958e-08  1.3178e-05  3.0589e-05  0:03:27 1391
   610  2.2900e-04  4.1404e-07  6.8367e-08  1.3049e-05  3.0466e-05  0:02:46 1390
   611  2.2695e-04  4.1246e-07  6.8139e-08  1.2925e-05  3.0349e-05  0:02:12 1389
   612  2.2552e-04  4.1001e-07  6.7694e-08  1.2803e-05  3.0236e-05  0:06:23 1388
   613  2.2766e-04  4.0749e-07  6.7192e-08  1.2678e-05  3.0114e-05  0:05:07 1387
   614  2.2620e-04  4.0624e-07  6.6967e-08  1.2553e-05  2.9997e-05  0:04:05 1386
   615  2.2760e-04  4.0426e-07  6.6643e-08  1.2433e-05  2.9886e-05  0:03:16 1385
   616  2.2663e-04  4.0186e-07  6.5746e-08  1.2314e-05  2.9766e-05  0:02:37 1384

  iter  continuity  x-velocity  y-velocity           k       omega     time/iter
   617  2.2819e-04  4.0083e-07  6.5334e-08  1.2194e-05  2.9652e-05  0:06:42 1383
   618  2.2748e-04  3.9772e-07  6.5573e-08  1.2072e-05  2.9534e-05  0:05:21 1382
   619  2.2764e-04  3.9609e-07  6.5299e-08  1.1952e-05  2.9419e-05  0:04:17 1381
   620  2.2644e-04  3.9388e-07  6.4812e-08  1.1841e-05  2.9309e-05  0:03:25 1380
   621  2.2662e-04  3.9173e-07  6.4461e-08  1.1726e-05  2.9194e-05  0:02:44 1379
   622  2.2295e-04  3.8975e-07  6.4048e-08  1.1610e-05  2.9079e-05  0:02:11 1378
   623  2.2235e-04  3.8761e-07  6.3886e-08  1.1499e-05  2.8967e-05  0:06:20 1377
   624  2.1973e-04  3.8581e-07  6.3671e-08  1.1386e-05  2.8849e-05  0:05:04 1376
   625  2.2376e-04  3.8372e-07  6.2781e-08  1.1276e-05  2.8739e-05  0:04:03 1375
   626  2.2284e-04  3.8219e-07  6.2754e-08  1.1170e-05  2.8626e-05  0:03:14 1374
   627  2.2047e-04  3.7949e-07  6.2345e-08  1.1059e-05  2.8519e-05  0:02:35 1373

  iter  continuity  x-velocity  y-velocity           k       omega     time/iter
   628  2.1743e-04  3.7823e-07  6.2065e-08  1.0951e-05  2.8397e-05  0:02:04 1372
   629  2.1983e-04  3.7575e-07  6.1631e-08  1.0843e-05  2.8285e-05  0:06:13 1371
   630  2.1852e-04  3.7321e-07  6.1612e-08  1.0740e-05  2.8172e-05  0:04:59 1370
   631  2.2058e-04  3.7021e-07  6.1146e-08  1.0629e-05  2.8057e-05  0:03:59 1369
   632  2.2057e-04  3.6913e-07  6.0774e-08  1.0521e-05  2.7946e-05  0:03:11 1368
   633  2.1689e-04  3.6732e-07  6.0668e-08  1.0419e-05  2.7842e-05  0:07:06 1367
   634  2.1809e-04  3.6470e-07  6.0056e-08  1.0321e-05  2.7720e-05  0:05:40 1366
   635  2.1745e-04  3.6360e-07  5.9644e-08  1.0212e-05  2.7614e-05  0:04:32 1365
   636  2.1978e-04  3.6180e-07  5.9374e-08  1.0106e-05  2.7496e-05  0:03:38 1364
   637  2.1952e-04  3.5886e-07  5.9252e-08  1.0004e-05  2.7386e-05  0:02:54 1363
   638  2.1795e-04  3.5709e-07  5.8906e-08  9.9031e-06  2.7266e-05  0:06:51 1362

  iter  continuity  x-velocity  y-velocity           k       omega     time/iter
   639  2.1656e-04  3.5438e-07  5.8447e-08  9.8037e-06  2.7160e-05  0:05:29 1361
   640  2.1803e-04  3.5235e-07  5.8160e-08  9.7060e-06  2.7048e-05  0:04:23 1360
   641  2.1426e-04  3.5070e-07  5.7722e-08  9.6045e-06  2.6934e-05  0:03:30 1359
   642  2.1661e-04  3.4942e-07  5.7489e-08  9.5032e-06  2.6822e-05  0:02:48 1358
   643  2.1464e-04  3.4750e-07  5.7300e-08  9.4077e-06  2.6714e-05  0:02:14 1357
   644  2.1589e-04  3.4587e-07  5.6916e-08  9.3132e-06  2.6597e-05  0:06:19 1356
   645  2.1232e-04  3.4341e-07  5.6737e-08  9.2145e-06  2.6489e-05  0:05:03 1355
   646  2.1343e-04  3.4106e-07  5.6136e-08  9.1173e-06  2.6375e-05  0:04:02 1354
   647  2.1200e-04  3.4001e-07  5.5497e-08  9.0193e-06  2.6268e-05  0:03:13 1353
   648  2.1239e-04  3.3808e-07  5.5255e-08  8.9280e-06  2.6151e-05  0:02:35 1352
   649  2.1019e-04  3.3602e-07  5.4858e-08  8.8353e-06  2.6032e-05  0:02:04 1351

  iter  continuity  x-velocity  y-velocity           k       omega     time/iter
   650  2.0865e-04  3.3486e-07  5.4621e-08  8.7426e-06  2.5914e-05  0:06:09 1350
   651  2.0984e-04  3.3268e-07  5.4211e-08  8.6499e-06  2.5802e-05  0:04:55 1349
   652  2.0969e-04  3.3122e-07  5.4003e-08  8.5610e-06  2.5688e-05  0:03:56 1348
   653  2.0819e-04  3.2963e-07  5.4059e-08  8.4666e-06  2.5575e-05  0:03:08 1347
   654  2.0872e-04  3.2719e-07  5.3684e-08  8.3744e-06  2.5461e-05  0:02:31 1346
   655  2.0943e-04  3.2574e-07  5.3548e-08  8.2835e-06  2.5350e-05  0:02:00 1345
   656  2.0688e-04  3.2398e-07  5.3666e-08  8.1984e-06  2.5239e-05  0:06:05 1344
   657  2.0621e-04  3.2197e-07  5.3161e-08  8.1108e-06  2.5124e-05  0:04:52 1343
   658  2.0648e-04  3.2043e-07  5.2839e-08  8.0194e-06  2.5011e-05  0:03:53 1342
   659  2.0583e-04  3.1908e-07  5.2670e-08  7.9321e-06  2.4901e-05  0:03:06 1341
   660  2.0535e-04  3.1769e-07  5.2518e-08  7.8453e-06  2.4787e-05  0:02:29 1340

  iter  continuity  x-velocity  y-velocity           k       omega     time/iter
   661  2.0679e-04  3.1631e-07  5.2260e-08  7.7589e-06  2.4674e-05  0:01:59 1339
   662  2.0371e-04  3.1493e-07  5.2089e-08  7.6690e-06  2.4559e-05  0:06:03 1338
   663  2.0417e-04  3.1334e-07  5.1644e-08  7.5820e-06  2.4444e-05  0:04:50 1337
   664  2.0281e-04  3.1132e-07  5.1202e-08  7.4933e-06  2.4331e-05  0:03:52 1336
   665  2.0214e-04  3.1017e-07  5.1193e-08  7.4089e-06  2.4219e-05  0:03:05 1335
   666  2.0108e-04  3.0880e-07  5.0712e-08  7.3202e-06  2.4100e-05  0:02:28 1334
   667  2.0208e-04  3.0772e-07  5.0662e-08  7.2370e-06  2.3987e-05  0:01:58 1333
   668  2.0200e-04  3.0601e-07  5.0610e-08  7.1598e-06  2.3872e-05  0:06:01 1332
   669  2.0159e-04  3.0434e-07  5.0342e-08  7.0748e-06  2.3755e-05  0:04:49 1331
   670  1.9744e-04  3.0265e-07  4.9889e-08  6.9978e-06  2.3639e-05  0:03:51 1330
   671  1.9954e-04  3.0168e-07  4.9533e-08  6.9169e-06  2.3527e-05  0:03:04 1329

  iter  continuity  x-velocity  y-velocity           k       omega     time/iter
   672  1.9845e-04  3.0028e-07  4.8972e-08  6.8361e-06  2.3411e-05  0:02:27 1328
   673  1.9911e-04  2.9840e-07  4.8599e-08  6.7615e-06  2.3294e-05  0:01:58 1327
   674  1.9872e-04  2.9724e-07  4.8463e-08  6.6803e-06  2.3176e-05  0:05:59 1326
   675  1.9704e-04  2.9587e-07  4.8274e-08  6.5946e-06  2.3065e-05  0:04:47 1325
   676  1.9807e-04  2.9523e-07  4.8053e-08  6.5179e-06  2.2944e-05  0:03:50 1324
   677  1.9722e-04  2.9510e-07  4.7689e-08  6.4370e-06  2.2834e-05  0:03:04 1323
   678  1.9775e-04  2.9343e-07  4.7792e-08  6.3551e-06  2.2718e-05  0:06:51 1322
   679  1.9832e-04  2.9225e-07  4.7422e-08  6.2768e-06  2.2606e-05  0:05:29 1321
   680  1.9859e-04  2.9030e-07  4.7995e-08  6.2023e-06  2.2483e-05  0:04:23 1320
   681  1.9497e-04  2.8886e-07  4.7872e-08  6.1238e-06  2.2381e-05  0:03:30 1319
   682  1.9393e-04  2.8841e-07  4.7582e-08  6.0518e-06  2.2269e-05  0:02:48 1318

  iter  continuity  x-velocity  y-velocity           k       omega     time/iter
   683  1.9294e-04  2.8619e-07  4.7212e-08  5.9786e-06  2.2167e-05  0:06:38 1317
   684  1.9393e-04  2.8454e-07  4.7203e-08  5.9086e-06  2.2070e-05  0:05:18 1316
   685  1.9486e-04  2.8404e-07  4.6933e-08  5.8344e-06  2.1971e-05  0:04:14 1315
   686  1.9380e-04  2.8326e-07  4.6677e-08  5.7651e-06  2.1870e-05  0:03:23 1314
   687  1.9316e-04  2.8197e-07  4.6322e-08  5.6912e-06  2.1771e-05  0:02:42 1313
   688  1.9306e-04  2.8056e-07  4.6146e-08  5.6200e-06  2.1670e-05  0:02:10 1312
   689  1.9142e-04  2.7895e-07  4.5822e-08  5.5496e-06  2.1574e-05  0:06:06 1311
   690  1.9254e-04  2.7977e-07  4.5869e-08  5.4839e-06  2.1470e-05  0:04:53 1310
   691  1.9160e-04  2.7772e-07  4.5908e-08  5.4169e-06  2.1373e-05  0:03:54 1309
   692  1.9176e-04  2.7613e-07  4.5672e-08  5.3478e-06  2.1272e-05  0:03:07 1308
   693  1.8895e-04  2.7615e-07  4.5448e-08  5.2788e-06  2.1171e-05  0:02:29 1307

  iter  continuity  x-velocity  y-velocity           k       omega     time/iter
   694  1.8722e-04  2.7383e-07  4.5355e-08  5.2065e-06  2.1069e-05  0:01:59 1306
   695  1.8954e-04  2.7335e-07  4.5244e-08  5.1375e-06  2.0975e-05  0:05:56 1305
   696  1.9031e-04  2.7377e-07  4.5168e-08  5.0694e-06  2.0867e-05  0:04:45 1304
   697  1.8866e-04  2.7243e-07  4.4820e-08  5.0026e-06  2.0772e-05  0:03:48 1303
   698  1.8947e-04  2.7128e-07  4.4374e-08  4.9334e-06  2.0671e-05  0:03:02 1302
   699  1.8887e-04  2.7063e-07  4.3834e-08  4.8670e-06  2.0572e-05  0:02:26 1301
   700  1.8704e-04  2.6964e-07  4.3688e-08  4.7954e-06  2.0467e-05  0:01:56 1300
   701  1.8962e-04  2.6960e-07  4.3630e-08  4.7306e-06  2.0370e-05  0:05:53 1299
   702  1.8628e-04  2.6797e-07  4.3826e-08  4.6597e-06  2.0269e-05  0:04:42 1298
   703  1.8592e-04  2.6756e-07  4.3652e-08  4.5952e-06  2.0172e-05  0:03:45 1297
   704  1.8782e-04  2.6610e-07  4.3354e-08  4.5308e-06  2.0071e-05  0:03:00 1296

  iter  continuity  x-velocity  y-velocity           k       omega     time/iter
   705  1.8351e-04  2.6598e-07  4.3355e-08  4.4627e-06  1.9975e-05  0:02:24 1295
   706  1.8623e-04  2.6445e-07  4.3112e-08  4.3932e-06  1.9879e-05  0:01:55 1294
   707  1.8971e-04  2.6378e-07  4.3118e-08  4.3311e-06  1.9780e-05  0:05:51 1293
   708  1.8748e-04  2.6235e-07  4.3255e-08  4.2594e-06  1.9677e-05  0:04:40 1292
   709  1.8630e-04  2.6166e-07  4.3016e-08  4.1920e-06  1.9578e-05  0:03:44 1291
   710  1.8740e-04  2.6123e-07  4.2934e-08  4.1301e-06  1.9477e-05  0:02:59 1290
   711  1.8666e-04  2.5970e-07  4.3189e-08  4.0614e-06  1.9379e-05  0:02:23 1289
   712  1.8661e-04  2.5985e-07  4.2770e-08  3.9981e-06  1.9276e-05  0:01:54 1288
   713  1.8469e-04  2.5817e-07  4.2732e-08  3.9317e-06  1.9183e-05  0:05:49 1287
   714  1.8357e-04  2.5704e-07  4.2300e-08  3.8701e-06  1.9078e-05  0:04:39 1286
   715  1.8298e-04  2.5757e-07  4.2103e-08  3.8069e-06  1.8979e-05  0:03:43 1285

  iter  continuity  x-velocity  y-velocity           k       omega     time/iter
   716  1.8236e-04  2.5677e-07  4.2120e-08  3.7425e-06  1.8882e-05  0:02:58 1284
   717  1.8304e-04  2.5522e-07  4.1813e-08  3.6845e-06  1.8781e-05  0:02:22 1283
   718  1.8280e-04  2.5365e-07  4.1932e-08  3.6237e-06  1.8679e-05  0:01:54 1282
   719  1.8168e-04  2.5273e-07  4.1641e-08  3.5686e-06  1.8580e-05  0:05:47 1281
   720  1.8244e-04  2.5291e-07  4.1598e-08  3.5093e-06  1.8479e-05  0:04:38 1280
   721  1.8347e-04  2.5279e-07  4.1646e-08  3.4545e-06  1.8382e-05  0:03:42 1279
   722  1.8317e-04  2.5215e-07  4.1415e-08  3.3994e-06  1.8286e-05  0:02:57 1278
   723  1.8433e-04  2.5117e-07  4.1371e-08  3.3546e-06  1.8187e-05  0:02:22 1277
   724  1.8380e-04  2.5110e-07  4.1444e-08  3.3058e-06  1.8087e-05  0:06:09 1276
   725  1.8114e-04  2.5004e-07  4.1001e-08  3.2597e-06  1.7990e-05  0:04:55 1275
   726  1.8031e-04  2.4860e-07  4.0817e-08  3.2131e-06  1.7894e-05  0:03:55 1274

  iter  continuity  x-velocity  y-velocity           k       omega     time/iter
   727  1.7967e-04  2.4930e-07  4.0501e-08  3.1752e-06  1.7795e-05  0:03:08 1273
   728  1.8435e-04  2.4786e-07  4.0570e-08  3.1370e-06  1.7692e-05  0:02:30 1272
   729  1.8168e-04  2.4788e-07  4.0650e-08  3.0988e-06  1.7593e-05  0:06:14 1271
   730  1.7924e-04  2.4621e-07  4.0442e-08  3.0612e-06  1.7498e-05  0:04:59 1270
   731  1.8371e-04  2.4613e-07  4.0434e-08  3.0253e-06  1.7402e-05  0:03:59 1269
   732  1.8077e-04  2.4425e-07  4.0553e-08  2.9918e-06  1.7300e-05  0:03:11 1268
[...]
  1818  1.5114e-04  6.2745e-08  1.6838e-08  2.4128e-07  8.4990e-08  0:00:47  182
  1819  1.4978e-04  6.1985e-08  1.7175e-08  2.4512e-07  8.9799e-08  0:00:37  181
  1820  1.4925e-04  6.2410e-08  1.6813e-08  2.4710e-07  8.6034e-08  0:00:30  180
  1821  1.5146e-04  6.2303e-08  1.6953e-08  2.4973e-07  9.0235e-08  0:00:24  179
  1822  1.4784e-04  6.2179e-08  1.6881e-08  2.4099e-07  8.4953e-08  0:00:19  178
  1823  1.4937e-04  6.0738e-08  1.6800e-08  2.3372e-07  9.1381e-08  0:00:15  177
  1824  1.5023e-04  6.3636e-08  1.6838e-08  2.3225e-07  8.5270e-08  0:00:47  176
  1825  1.5036e-04  6.1760e-08  1.6886e-08  2.3170e-07  8.8624e-08  0:00:37  175
  1826  1.4723e-04  6.2669e-08  1.6836e-08  2.3275e-07  8.2966e-08  0:00:30  174

  iter  continuity  x-velocity  y-velocity           k       omega     time/iter
  1827  1.4746e-04  6.2249e-08  1.6412e-08  2.4164e-07  9.1581e-08  0:00:24  173
  1828  1.5069e-04  6.2193e-08  1.6819e-08  2.4997e-07  8.5309e-08  0:00:19  172
  1829  1.4998e-04  6.2453e-08  1.6908e-08  2.6620e-07  9.3319e-08  0:00:15  171
  1830  1.5152e-04  6.1928e-08  1.6702e-08  2.7517e-07  8.4954e-08  0:00:46  170
  1831  1.5051e-04  6.2537e-08  1.6800e-08  2.7860e-07  8.7315e-08  0:00:37  169
  1832  1.4894e-04  6.2962e-08  1.7051e-08  2.7906e-07  8.5701e-08  0:00:29  168
  1833  1.5100e-04  6.1908e-08  1.6791e-08  2.6681e-07  8.6662e-08  0:00:23  167
  1834  1.4783e-04  6.2369e-08  1.6975e-08  2.5221e-07  8.1741e-08  0:00:52  166
  1835  1.4840e-04  6.1890e-08  1.6739e-08  2.3941e-07  8.5013e-08  0:00:41  165
  1836  1.4912e-04  6.2035e-08  1.6780e-08  2.3717e-07  9.1323e-08  0:00:33  164
  1837  1.5114e-04  6.2362e-08  1.6730e-08  2.4583e-07  8.6777e-08  0:00:26  163

  iter  continuity  x-velocity  y-velocity           k       omega     time/iter
  1838  1.5100e-04  6.1389e-08  1.6825e-08  2.4078e-07  8.9254e-08  0:00:21  162
  1839  1.4946e-04  6.1757e-08  1.6883e-08  2.3006e-07  8.5174e-08  0:00:16  161
  1840  1.5226e-04  6.1925e-08  1.6674e-08  2.3555e-07  8.6302e-08  0:00:45  160
  1841  1.5159e-04  6.1300e-08  1.7028e-08  2.4249e-07  8.7088e-08  0:00:36  159
  1842  1.4956e-04  6.3024e-08  1.7004e-08  2.4035e-07  8.5677e-08  0:00:28  158
  1843  1.4967e-04  6.2203e-08  1.6989e-08  2.3963e-07  8.9208e-08  0:00:23  157
  1844  1.5097e-04  6.2384e-08  1.6772e-08  2.4883e-07  8.7760e-08  0:00:18  156
  1845  1.5171e-04  6.2580e-08  1.6894e-08  2.4574e-07  9.1677e-08  0:00:14  155
  1846  1.5069e-04  6.1582e-08  1.6994e-08  2.4643e-07  8.9020e-08  0:00:42  154
  1847  1.4883e-04  6.1933e-08  1.6909e-08  2.4440e-07  9.0958e-08  0:00:34  153
  1848  1.4842e-04  6.1597e-08  1.6590e-08  2.4577e-07  8.7458e-08  0:00:27  152

  iter  continuity  x-velocity  y-velocity           k       omega     time/iter
  1849  1.4955e-04  6.0542e-08  1.6751e-08  2.4238e-07  9.2310e-08  0:00:21  151
  1850  1.5358e-04  6.2769e-08  1.7018e-08  2.4242e-07  8.9124e-08  0:00:17  150
  1851  1.5186e-04  6.2461e-08  1.6927e-08  2.3064e-07  9.2025e-08  0:00:13  149
  1852  1.5072e-04  6.2275e-08  1.6907e-08  2.2624e-07  8.8420e-08  0:00:40  148
  1853  1.5108e-04  6.1766e-08  1.6698e-08  2.1959e-07  9.0203e-08  0:00:32  147
  1854  1.5051e-04  6.1797e-08  1.7154e-08  2.1773e-07  8.7546e-08  0:00:25  146
  1855  1.5173e-04  6.0591e-08  1.6817e-08  2.1161e-07  9.1650e-08  0:00:20  145
  1856  1.4872e-04  6.1642e-08  1.6886e-08  2.1340e-07  8.5334e-08  0:00:16  144
  1857  1.4833e-04  6.1237e-08  1.6530e-08  2.1082e-07  8.9955e-08  0:00:13  143
  1858  1.5000e-04  6.0182e-08  1.6650e-08  2.1435e-07  8.7264e-08  0:00:39  142
  1859  1.5047e-04  6.0605e-08  1.6636e-08  2.1884e-07  8.7568e-08  0:00:31  141

  iter  continuity  x-velocity  y-velocity           k       omega     time/iter
  1860  1.5017e-04  6.0575e-08  1.6900e-08  2.1532e-07  8.4561e-08  0:00:24  140
  1861  1.4648e-04  6.1430e-08  1.6812e-08  2.1888e-07  9.0291e-08  0:00:19  139
  1862  1.4919e-04  6.2013e-08  1.6674e-08  2.2796e-07  8.5773e-08  0:00:15  138
  1863  1.4637e-04  6.0902e-08  1.6524e-08  2.2841e-07  8.8865e-08  0:00:12  137
  1864  1.5003e-04  6.1048e-08  1.6494e-08  2.2966e-07  8.5324e-08  0:00:37  136
  1865  1.4843e-04  6.1269e-08  1.6711e-08  2.3278e-07  9.0600e-08  0:00:29  135
  1866  1.4814e-04  6.2381e-08  1.6532e-08  2.3311e-07  8.6842e-08  0:00:23  134
  1867  1.4927e-04  6.1527e-08  1.6874e-08  2.2862e-07  9.0885e-08  0:00:18  133
  1868  1.5103e-04  6.2075e-08  1.6567e-08  2.2857e-07  8.6641e-08  0:00:15  132
  1869  1.5068e-04  6.2089e-08  1.6859e-08  2.2046e-07  8.9186e-08  0:00:12  131
  1870  1.4787e-04  6.0397e-08  1.6489e-08  2.2678e-07  8.6493e-08  0:00:35  130

  iter  continuity  x-velocity  y-velocity           k       omega     time/iter
  1871  1.4848e-04  6.0886e-08  1.6531e-08  2.2823e-07  8.9703e-08  0:00:28  129
  1872  1.4929e-04  6.0891e-08  1.6423e-08  2.2779e-07  8.7326e-08  0:00:22  128
  1873  1.4761e-04  6.2840e-08  1.6734e-08  2.2940e-07  8.9330e-08  0:00:18  127
  1874  1.4824e-04  6.2177e-08  1.6702e-08  2.3561e-07  8.7554e-08  0:00:14  126
  1875  1.4969e-04  6.2155e-08  1.6423e-08  2.3296e-07  8.4290e-08  0:00:11  125
  1876  1.5089e-04  6.1494e-08  1.6733e-08  2.2782e-07  8.6984e-08  0:00:34  124
  1877  1.4822e-04  6.2247e-08  1.6478e-08  2.3408e-07  8.7130e-08  0:00:27  123
  1878  1.5045e-04  6.2930e-08  1.6645e-08  2.4634e-07  8.2966e-08  0:00:21  122
  1879  1.4998e-04  6.0828e-08  1.6912e-08  2.5830e-07  8.3500e-08  0:00:17  121
  1880  1.5102e-04  6.1598e-08  1.6584e-08  2.6138e-07  8.6036e-08  0:00:13  120
  1881  1.5109e-04  6.0432e-08  1.6740e-08  2.7028e-07  8.3577e-08  0:00:34  119

  iter  continuity  x-velocity  y-velocity           k       omega     time/iter
  1882  1.4745e-04  6.0875e-08  1.6806e-08  2.7567e-07  8.5936e-08  0:00:27  118
  1883  1.4957e-04  6.1010e-08  1.6937e-08  2.6663e-07  8.4132e-08  0:00:22  117
  1884  1.5124e-04  6.0720e-08  1.6755e-08  2.4848e-07  8.3202e-08  0:00:17  116
  1885  1.4879e-04  6.1815e-08  1.6635e-08  2.3982e-07  8.7831e-08  0:00:14  115
  1886  1.5183e-04  6.2419e-08  1.6676e-08  2.3076e-07  8.6912e-08  0:00:11  114
  1887  1.4925e-04  6.1041e-08  1.6643e-08  2.2717e-07  9.0760e-08  0:00:31  113
  1888  1.5074e-04  6.0985e-08  1.6625e-08  2.2792e-07  8.5290e-08  0:00:25  112
  1889  1.4958e-04  6.1244e-08  1.7020e-08  2.1527e-07  9.0840e-08  0:00:20  111
  1890  1.5073e-04  6.2509e-08  1.6892e-08  2.1365e-07  8.4673e-08  0:00:16  110
  1891  1.4916e-04  5.9781e-08  1.7023e-08  2.1965e-07  8.8557e-08  0:00:12  109
  1892  1.5005e-04  6.1252e-08  1.6763e-08  2.2289e-07  8.7152e-08  0:00:10  108

  iter  continuity  x-velocity  y-velocity           k       omega     time/iter
  1893  1.4857e-04  6.0399e-08  1.6644e-08  2.3165e-07  8.8212e-08  0:00:29  107
  1894  1.5016e-04  6.0061e-08  1.6681e-08  2.3233e-07  8.8657e-08  0:00:23  106
  1895  1.5236e-04  6.0443e-08  1.7023e-08  2.3882e-07  9.3318e-08  0:00:18  105
  1896  1.5074e-04  6.0043e-08  1.6785e-08  2.3820e-07  8.9033e-08  0:00:14  104
  1897  1.5048e-04  6.1916e-08  1.6799e-08  2.3540e-07  9.0685e-08  0:00:11  103
  1898  1.5246e-04  6.1410e-08  1.6821e-08  2.3497e-07  8.7426e-08  0:00:09  102
  1899  1.5248e-04  6.0765e-08  1.6860e-08  2.3517e-07  8.2723e-08  0:00:27  101
  1900  1.4880e-04  5.9389e-08  1.6736e-08  2.3333e-07  8.6533e-08  0:00:22  100
  1901  1.4748e-04  5.9589e-08  1.6560e-08  2.2361e-07  8.5840e-08  0:00:17   99
  1902  1.4769e-04  6.0701e-08  1.6626e-08  2.1898e-07  8.7017e-08  0:00:14   98
  1903  1.4925e-04  6.2185e-08  1.6380e-08  2.1541e-07  8.6485e-08  0:00:11   97

  iter  continuity  x-velocity  y-velocity           k       omega     time/iter
  1904  1.5114e-04  6.1511e-08  1.6744e-08  2.1294e-07  8.6017e-08  0:00:09   96
  1905  1.5140e-04  6.1767e-08  1.6681e-08  2.0265e-07  8.8107e-08  0:00:26   95
  1906  1.5339e-04  6.1063e-08  1.6829e-08  1.9348e-07  8.7783e-08  0:00:20   94
  1907  1.5126e-04  6.1315e-08  1.6667e-08  1.8734e-07  8.7766e-08  0:00:16   93
  1908  1.5091e-04  6.1262e-08  1.6748e-08  1.8305e-07  8.8349e-08  0:00:13   92
  1909  1.5086e-04  5.9784e-08  1.7034e-08  1.8104e-07  8.7990e-08  0:00:10   91
  1910  1.4766e-04  6.1248e-08  1.7036e-08  1.8292e-07  8.6272e-08  0:00:08   90
  1911  1.5226e-04  5.9533e-08  1.6761e-08  1.8602e-07  8.6699e-08  0:00:24   89
  1912  1.5020e-04  6.0237e-08  1.6889e-08  1.9651e-07  8.7251e-08  0:00:19   88
  1913  1.5031e-04  5.9668e-08  1.6949e-08  1.9843e-07  8.7477e-08  0:00:15   87
  1914  1.4940e-04  6.1340e-08  1.6817e-08  2.0621e-07  8.7243e-08  0:00:12   86

  iter  continuity  x-velocity  y-velocity           k       omega     time/iter
  1915  1.5010e-04  6.1207e-08  1.6949e-08  2.1173e-07  9.2660e-08  0:00:09   85
  1916  1.4986e-04  6.0906e-08  1.6726e-08  2.1103e-07  8.8199e-08  0:00:07   84
  1917  1.5079e-04  5.9807e-08  1.6661e-08  2.0234e-07  8.7701e-08  0:00:22   83
  1918  1.4908e-04  6.1483e-08  1.6598e-08  2.0187e-07  8.6360e-08  0:00:18   82
  1919  1.4828e-04  6.0152e-08  1.6969e-08  2.0042e-07  8.8278e-08  0:00:14   81
  1920  1.5050e-04  6.0504e-08  1.6657e-08  1.9903e-07  8.1003e-08  0:00:11   80
  1921  1.5038e-04  6.0477e-08  1.6746e-08  1.9823e-07  8.2647e-08  0:00:25   79
  1922  1.4991e-04  5.9965e-08  1.6897e-08  2.0125e-07  8.2840e-08  0:00:19   78
  1923  1.5079e-04  5.9888e-08  1.6708e-08  2.1159e-07  8.5311e-08  0:00:15   77
  1924  1.4999e-04  6.0592e-08  1.6771e-08  2.1673e-07  8.0616e-08  0:00:12   76
  1925  1.4827e-04  6.1064e-08  1.6437e-08  2.1807e-07  8.3563e-08  0:00:10   75

  iter  continuity  x-velocity  y-velocity           k       omega     time/iter
  1926  1.5160e-04  6.1152e-08  1.6672e-08  2.1661e-07  8.0504e-08  0:00:08   74
  1927  1.4831e-04  6.0129e-08  1.6814e-08  2.1867e-07  8.5091e-08  0:00:21   73
  1928  1.4864e-04  6.1163e-08  1.6714e-08  2.2763e-07  8.2784e-08  0:00:16   72
  1929  1.4923e-04  6.0390e-08  1.6630e-08  2.3428e-07  8.6028e-08  0:00:13   71
  1930  1.4925e-04  6.0286e-08  1.6812e-08  2.3394e-07  8.5374e-08  0:00:10   70
  1931  1.5193e-04  5.9371e-08  1.6841e-08  2.3999e-07  8.7093e-08  0:00:08   69
  1932  1.4751e-04  6.0763e-08  1.6788e-08  2.4404e-07  8.3200e-08  0:00:06   68
  1933  1.4993e-04  6.0217e-08  1.6402e-08  2.3975e-07  8.4168e-08  0:00:18   67
  1934  1.4903e-04  6.0436e-08  1.6722e-08  2.2657e-07  8.2226e-08  0:00:14   66
  1935  1.4889e-04  6.0445e-08  1.6671e-08  2.1858e-07  8.4696e-08  0:00:11   65
  1936  1.4976e-04  5.9116e-08  1.6837e-08  2.1710e-07  8.4360e-08  0:00:09   64

  iter  continuity  x-velocity  y-velocity           k       omega     time/iter
  1937  1.4887e-04  6.0180e-08  1.6725e-08  2.1936e-07  8.7322e-08  0:00:07   63
  1938  1.4965e-04  5.9770e-08  1.6510e-08  2.1190e-07  8.6924e-08  0:00:06   62
  1939  1.4994e-04  5.9701e-08  1.6870e-08  1.9828e-07  8.6448e-08  0:00:17   61
  1940  1.4998e-04  6.0521e-08  1.6721e-08  2.0431e-07  8.4987e-08  0:00:13   60
  1941  1.4797e-04  6.1692e-08  1.6529e-08  2.0588e-07  8.3470e-08  0:00:10   59
  1942  1.4867e-04  5.9312e-08  1.6346e-08  2.0907e-07  8.3336e-08  0:00:08   58
  1943  1.4997e-04  5.9838e-08  1.6533e-08  2.1356e-07  8.1625e-08  0:00:06   57
  1944  1.4993e-04  5.9974e-08  1.6493e-08  2.2227e-07  7.9818e-08  0:00:05   56
  1945  1.4802e-04  6.0413e-08  1.6589e-08  2.2920e-07  8.3093e-08  0:00:15   55
  1946  1.5019e-04  6.0061e-08  1.6755e-08  2.3103e-07  8.0625e-08  0:00:12   54
  1947  1.5127e-04  6.0101e-08  1.6690e-08  2.2450e-07  8.6571e-08  0:00:09   53

  iter  continuity  x-velocity  y-velocity           k       omega     time/iter
  1948  1.4936e-04  6.0340e-08  1.6881e-08  2.2243e-07  8.2613e-08  0:00:07   52
  1949  1.5179e-04  6.1750e-08  1.6689e-08  2.1639e-07  8.4235e-08  0:00:06   51
  1950  1.4957e-04  6.0069e-08  1.6798e-08  2.1510e-07  8.2361e-08  0:00:04   50
  1951  1.4793e-04  5.9642e-08  1.6659e-08  1.9956e-07  8.6094e-08  0:00:13   49
  1952  1.5029e-04  5.8528e-08  1.6636e-08  1.9426e-07  8.5846e-08  0:00:10   48
  1953  1.4945e-04  5.9554e-08  1.6746e-08  1.9003e-07  8.6118e-08  0:00:08   47
  1954  1.5143e-04  6.0405e-08  1.6356e-08  1.8189e-07  8.3094e-08  0:00:06   46
  1955  1.5074e-04  6.0225e-08  1.6582e-08  1.8005e-07  8.4382e-08  0:00:05   45
  1956  1.4976e-04  6.0750e-08  1.6615e-08  1.7893e-07  8.3052e-08  0:00:04   44
  1957  1.4828e-04  6.0274e-08  1.6503e-08  1.7704e-07  8.5476e-08  0:00:12   43
  1958  1.4725e-04  6.1515e-08  1.6718e-08  1.7394e-07  8.2881e-08  0:00:09   42

  iter  continuity  x-velocity  y-velocity           k       omega     time/iter
  1959  1.4960e-04  5.9691e-08  1.6654e-08  1.7120e-07  8.7355e-08  0:00:07   41
  1960  1.4965e-04  6.0068e-08  1.6579e-08  1.7089e-07  9.0281e-08  0:00:06   40
  1961  1.5067e-04  5.9994e-08  1.6744e-08  1.7817e-07  8.8203e-08  0:00:04   39
  1962  1.5249e-04  6.1282e-08  1.6786e-08  1.8115e-07  8.6908e-08  0:00:03   38
  1963  1.5013e-04  6.0207e-08  1.6911e-08  1.8627e-07  8.2279e-08  0:00:10   37
  1964  1.5083e-04  5.9280e-08  1.6890e-08  1.9776e-07  8.0833e-08  0:00:08   36
  1965  1.5041e-04  5.9293e-08  1.6696e-08  2.0649e-07  8.1855e-08  0:00:06   35
  1966  1.4864e-04  5.8883e-08  1.6465e-08  2.0276e-07  8.2507e-08  0:00:05   34
  1967  1.4810e-04  5.8709e-08  1.6641e-08  1.9908e-07  8.4680e-08  0:00:10   33
  1968  1.5148e-04  5.9723e-08  1.6560e-08  1.9299e-07  8.0687e-08  0:00:08   32
  1969  1.4824e-04  5.9841e-08  1.6630e-08  1.8865e-07  8.2661e-08  0:00:06   31

  iter  continuity  x-velocity  y-velocity           k       omega     time/iter
  1970  1.4782e-04  5.9592e-08  1.6521e-08  1.8249e-07  7.9389e-08  0:00:05   30
  1971  1.4525e-04  5.9867e-08  1.6704e-08  1.8208e-07  8.2685e-08  0:00:04   29
  1972  1.4805e-04  5.9234e-08  1.6631e-08  1.8288e-07  7.8956e-08  0:00:03   28
  1973  1.4885e-04  5.9900e-08  1.6615e-08  1.8859e-07  8.2963e-08  0:00:08   27
  1974  1.4909e-04  5.9388e-08  1.6617e-08  1.9540e-07  8.2244e-08  0:00:06   26
  1975  1.4821e-04  5.9407e-08  1.6511e-08  1.9812e-07  8.5228e-08  0:00:05   25
  1976  1.4985e-04  6.0056e-08  1.6784e-08  2.0837e-07  8.0825e-08  0:00:03   24
  1977  1.5000e-04  6.0968e-08  1.6751e-08  2.0849e-07  8.3405e-08  0:00:03   23
  1978  1.4917e-04  5.9149e-08  1.6997e-08  2.2602e-07  8.0206e-08  0:00:02   22
  1979  1.5058e-04  5.8930e-08  1.6704e-08  2.2757e-07  8.4491e-08  0:00:06   21
  1980  1.4832e-04  5.9600e-08  1.6938e-08  2.2948e-07  8.0617e-08  0:00:04   20

  iter  continuity  x-velocity  y-velocity           k       omega     time/iter
  1981  1.4913e-04  5.9633e-08  1.6503e-08  2.2943e-07  8.1547e-08  0:00:03   19
  1982  1.4980e-04  5.9506e-08  1.6714e-08  2.3136e-07  8.4330e-08  0:00:03   18
  1983  1.4913e-04  6.0113e-08  1.6596e-08  2.2621e-07  8.3469e-08  0:00:02   17
  1984  1.5004e-04  5.8828e-08  1.6508e-08  2.1619e-07  8.1826e-08  0:00:01   16
  1985  1.5044e-04  5.9164e-08  1.6808e-08  2.0886e-07  8.3463e-08  0:00:04   15
  1986  1.4971e-04  5.9629e-08  1.6884e-08  2.0995e-07  7.6714e-08  0:00:03   14
  1987  1.4727e-04  5.9069e-08  1.7022e-08  2.1050e-07  8.0305e-08  0:00:02   13
  1988  1.4712e-04  5.9745e-08  1.6591e-08  2.0872e-07  7.8437e-08  0:00:02   12
  1989  1.5197e-04  5.9370e-08  1.6729e-08  1.9753e-07  7.9571e-08  0:00:01   11
  1990  1.4980e-04  6.0899e-08  1.6532e-08  1.8784e-07  7.5767e-08  0:00:01   10
  1991  1.4715e-04  6.0362e-08  1.6488e-08  1.8686e-07  7.6467e-08  0:00:02    9

  iter  continuity  x-velocity  y-velocity           k       omega     time/iter
  1992  1.5204e-04  5.9660e-08  1.6570e-08  1.8716e-07  7.7023e-08  0:00:02    8
  1993  1.4865e-04  6.0002e-08  1.6952e-08  1.8909e-07  8.0128e-08  0:00:01    7
  1994  1.4901e-04  5.9070e-08  1.6729e-08  2.0161e-07  7.7452e-08  0:00:01    6
  1995  1.4710e-04  5.9885e-08  1.6776e-08  2.0769e-07  8.2831e-08  0:00:01    5
  1996  1.4711e-04  5.8949e-08  1.6517e-08  2.1441e-07  7.8625e-08  0:00:00    4
  1997  1.4891e-04  5.9071e-08  1.6522e-08  2.1793e-07  8.4890e-08  0:00:01    3
  1998  1.5191e-04  5.8171e-08  1.6643e-08  2.1766e-07  7.8029e-08  0:00:00    2
  1999  1.4945e-04  5.8815e-08  1.6652e-08  2.1409e-07  8.2147e-08  0:00:00    1
  2000  1.4958e-04  6.0183e-08  1.6735e-08  2.0890e-07  7.8937e-08  0:00:00    0

> 
adjoint/                parallel/               server/
define/                 parametric-study/       solve/
display/                plot/                   surface/
exit                    preferences/            views/
file/                   print-license-usage
mesh/                   report/

> ;create rakes
surface/rake-surface cv_inlet -0.005 -0.065 -0.005 0.065 1000

> surface/rake-surface cv_outlet 1.005 -0.065 1.005 0.065 1000

> surface/rake-surface cv_top -0.005 0.065 1.005 0.065 1000

> surface/rake-surface cv_bottom -0.005 -0.065 1.005 -0.065 1000

> surface/point-surface free-stream -15 0

> 
adjoint/                parallel/               server/
define/                 parametric-study/       solve/
display/                plot/                   surface/
exit                    preferences/            views/
file/                   print-license-usage
mesh/                   report/

> ;export data
file/export/ascii NP_CVinlet_data cv_inlet () no pressure x-velocity y-velocity dx-velocity-dx dx-velocity-dy dy-velocity-dx dy-velocity-dy q no 
Writing "NP_CVinlet_data"...

Writing information to ascii file ...
Done.

ok


Overwrite confirmations (/file/set-batch-options ...)
are on -- will therefore ignore the following journal
Error: invalid command: ok


> file/export/ascii NP_CVoutlet_data cv_outlet () no pressure x-velocity y-velocity dx-velocity-dx dx-velocity-dy dy-velocity-dx dy-velocity-dy q no 
Writing "NP_CVoutlet_data"...

Writing information to ascii file ...
Done.

ok


Overwrite confirmations (/file/set-batch-options ...)
are on -- will therefore ignore the following journal
Error: invalid command: ok


> file/export/ascii NP_CVtop_data cv_top () no pressure x-velocity y-velocity dx-velocity-dx dx-velocity-dy dy-velocity-dx dy-velocity-dy q no 
Writing "NP_CVtop_data"...

Writing information to ascii file ...
Done.

ok


Overwrite confirmations (/file/set-batch-options ...)
are on -- will therefore ignore the following journal
Error: invalid command: ok


> file/export/ascii NP_CVbottom_data cv_bottom () no pressure x-velocity y-velocity dx-velocity-dx dx-velocity-dy dy-velocity-dx dy-velocity-dy q no 
Writing "NP_CVbottom_data"...

Writing information to ascii file ...
Done.

ok


Overwrite confirmations (/file/set-batch-options ...)
are on -- will therefore ignore the following journal
Error: invalid command: ok


> file/export/ascii air_properties free-stream () no density viscosity-lam q no 
Writing "air_properties"...

Writing information to ascii file ...
Done.

ok


Overwrite confirmations (/file/set-batch-options ...)
are on -- will therefore ignore the following journal
Error: invalid command: ok


> 
adjoint/                parallel/               server/
define/                 parametric-study/       solve/
display/                plot/                   surface/
exit                    preferences/            views/
file/                   print-license-usage
mesh/                   report/

> ;flag file to know when simulation is over
file/export/ascii flag_file free-stream () no pressure q no 
Writing "flag_file"...

Writing information to ascii file ...
Done.

ok


Overwrite confirmations (/file/set-batch-options ...)
are on -- will therefore ignore the following journal
Error: invalid command: ok


> /exit ok

Posting ANSYS Product Improvement Program performance data 
Done.
Auto-Transcript Stop Time:  21:42:15, 20 Jul 2025 GMT Summer Time 
Total Transcript Time: 23 Minute 3 Second.
