Auto-Transcript Start Time:  19:13:23, 01 Jul 2025 GMT Summer Time 
Current Directory: "C:\Users\V.Chepuri\OneDrive - Cranfield University\irp\pablo\AOA_0"

              Welcome to ANSYS Fluent 2024 R2

              Copyright 1987-2024 ANSYS, Inc. All Rights Reserved.
              Unauthorized use, distribution or duplication is prohibited.
              This product is subject to U.S. laws governing export and re-export.
              For full Legal Notice, see documentation.

Build Time: May 13 2024 11:28:30 EST  Build Id: 10192  
 
Connected License Server List:	1055@cclic-2.central.cranfield.ac.uk

*********************************************
Info: Your license enables 4-way parallel execution.
For faster simulations, please start the application with the appropriate parallel options.
*********************************************


     --------------------------------------------------------------
     This is an academic version of ANSYS FLUENT. Usage of this product
     license is limited to the terms and conditions specified in your ANSYS
     license form, additional terms section.
     --------------------------------------------------------------
Host spawning Node 0 on machine "37PCL051" (win64).

-------------------------------------------------------------------------------
ID    Hostname  Core  O.S.         PID    Vendor                          
-------------------------------------------------------------------------------
n0    37PCL051  1/28  Windows-x64  28216  Intel(R) Core(TM) i7-14700      
host  37PCL051        Windows-x64  17660  Intel(R) Core(TM) i7-14700      

MPI Option Selected: intel
-------------------------------------------------------------------------------

Cleanup script file is C:\\Users\\V.Chepuri\\OneDrive - Cranfield University\\irp\\pablo\\AOA_0\\cleanup-fluent-37PCL051-17660.bat

Posting ANSYS Product Improvement Program startup data
Done.

> (cx-gui-do cx-activate-item "Key Behavioral Changes*PanelButtons*PushButton1(OK)")
(cx-gui-do cx-activate-item "MenuBar*ReadSubMenu*Case...")
(cx-gui-do cx-set-file-dialog-entries "Select File" '( "template_medium.cas.h5") "CFF Case Files (*.cas.h5 *.msh.h5 *.MSH.h5 )")
Fast-loading "C:\PROGRA~1\ANSYSI~1\v242\fluent\fluent24.2.0\\addons\afd\lib\hdfio.bin"
Done.

37PCL051 has other FLUENT parallel processes running.                       Process affinity not being set.

Reading from 37PCL051:"C:/Users/V.Chepuri/OneDrive - Cranfield University/irp/pablo/AOA_0/template_medium.cas.h5" in NODE0 mode ...
  Reading mesh ...
      181070 cells,     4 cell zones ...
          36824 mixed cells,  zone id: 2
         108032 mixed cells,  zone id: 4
          27008 mixed cells,  zone id: 12
           9206 mixed cells,  zone id: 11
      309160 faces,    14 face zones ...
          65137 2D interior faces,  zone id: 3
         181145 2D interior faces,  zone id: 5
             42 2D velocity-inlet faces,  zone id: 6
             38 2D pressure-outlet faces,  zone id: 7
             40 2D velocity-inlet faces,  zone id: 8
            458 2D interior faces,  zone id: 9
            456 2D interior faces,  zone id: 10
            228 2D parent-face faces,  zone id: 19
            229 2D parent-face faces,  zone id: 18
             20 2D parent-face faces,  zone id: 17
             19 2D parent-face faces,  zone id: 16
             21 2D parent-face faces,  zone id: 15
          45157 2D parent-face faces,  zone id: 14
          16170 2D parent-face faces,  zone id: 13
      102461 nodes,     1 node zone  ...
  Done.


Building...
     mesh
     materials,
     interface,
     domains,
	mixture
     zones,
	outlet
	inlet
	interior-fluid
	interior-porous
	symmetry
	upper
	lower
	fluid
	porous
WARNING: "Smooth" contours can't be displayed when node-values is set to off. Changing the Coloring type to "Banded".
     parallel,
Done.
(cx-gui-do cx-activate-item "ToolBar*Mesh Display*fl_mesh_svg_graphics_toolbar")
(cx-gui-do cx-activate-item "Mesh Display*PanelButtons*PushButton1(OK)")
(cx-gui-do cx-activate-item "Mesh Display*PanelButtons*PushButton2(Cancel)")
(cx-use-window-id 51)
(dolly-camera 1.9895 -3.58485 0)
(cx-use-window-id 51)
(handle-key "control ??")
(cx-use-window-id 51)
(dolly-camera 0.101032 2.27731 0)
(cx-use-window-id 51)
(handle-key "control ??")
(cx-use-window-id 51)
(dolly-camera -0.000906467 0.233359 0)
(cx-use-window-id 51)
(handle-key "control ??")
(cx-use-window-id 51)
(dolly-camera -0.0062741 0.22404 0)
(cx-gui-do cx-set-list-tree-selections "NavigationPane*Frame2*Table1*List_Tree2" (list "Setup|Boundary Conditions|Inlet|inlet (velocity-inlet, id=6)"))
(cx-gui-do cx-set-list-tree-selections "NavigationPane*Frame2*Table1*List_Tree2" (list "Setup|Boundary Conditions|Inlet|inlet (velocity-inlet, id=6)"))
(cx-gui-do cx-activate-item "NavigationPane*Frame2*Table1*List_Tree2")
(cx-gui-do cx-set-list-tree-selections "NavigationPane*Frame2*Table1*List_Tree2" (list "Setup|Boundary Conditions|Inlet|inlet (velocity-inlet, id=6)"))
(cx-gui-do cx-activate-tab-index "Velocity Inlet*Frame2*Frame2" 0)
(cx-gui-do cx-activate-tab-index "Velocity Inlet*Frame2*Frame2" 1)
(cx-gui-do cx-activate-tab-index "Velocity Inlet*Frame2*Frame2" 0)
(cx-gui-do cx-activate-tab-index "Velocity Inlet*Frame2*Frame2" 2)
(cx-gui-do cx-activate-tab-index "Velocity Inlet*Frame2*Frame2" 0)
(cx-gui-do cx-activate-tab-index "Velocity Inlet*Frame2*Frame2" 3)
(cx-gui-do cx-activate-tab-index "Velocity Inlet*Frame2*Frame2" 0)
(cx-gui-do cx-activate-tab-index "Velocity Inlet*Frame2*Frame2" 4)
(cx-gui-do cx-activate-tab-index "Velocity Inlet*Frame2*Frame2" 0)
(cx-gui-do cx-activate-tab-index "Velocity Inlet*Frame2*Frame2" 5)
(cx-gui-do cx-activate-tab-index "Velocity Inlet*Frame2*Frame2" 0)
(cx-gui-do cx-activate-tab-index "Velocity Inlet*Frame2*Frame2" 6)
(cx-gui-do cx-activate-tab-index "Velocity Inlet*Frame2*Frame2" 0)
(cx-gui-do cx-activate-tab-index "Velocity Inlet*Frame2*Frame2" 7)
(cx-gui-do cx-activate-tab-index "Velocity Inlet*Frame2*Frame2" 0)
(cx-gui-do cx-activate-tab-index "Velocity Inlet*Frame2*Frame2" 8)
(cx-gui-do cx-activate-tab-index "Velocity Inlet*Frame2*Frame2" 0)
(cx-gui-do cx-activate-item "Velocity Inlet*PanelButtons*PushButton2(Cancel)")
(cx-gui-do cx-set-list-tree-selections "NavigationPane*Frame2*Table1*List_Tree2" (list "Setup|Boundary Conditions|Inlet|symmetry (velocity-inlet, id=8)"))
(cx-gui-do cx-set-list-tree-selections "NavigationPane*Frame2*Table1*List_Tree2" (list "Setup|Boundary Conditions|Inlet|symmetry (velocity-inlet, id=8)"))
(cx-gui-do cx-activate-item "NavigationPane*Frame2*Table1*List_Tree2")
(cx-gui-do cx-set-list-tree-selections "NavigationPane*Frame2*Table1*List_Tree2" (list "Setup|Boundary Conditions|Inlet|symmetry (velocity-inlet, id=8)"))
(cx-gui-do cx-activate-tab-index "Velocity Inlet*Frame2*Frame2" 0)
(cx-gui-do cx-activate-tab-index "Velocity Inlet*Frame2*Frame2" 1)
(cx-gui-do cx-activate-tab-index "Velocity Inlet*Frame2*Frame2" 0)
(cx-gui-do cx-activate-tab-index "Velocity Inlet*Frame2*Frame2" 2)
(cx-gui-do cx-activate-tab-index "Velocity Inlet*Frame2*Frame2" 0)
(cx-gui-do cx-activate-tab-index "Velocity Inlet*Frame2*Frame2" 3)
(cx-gui-do cx-activate-tab-index "Velocity Inlet*Frame2*Frame2" 0)
(cx-gui-do cx-activate-tab-index "Velocity Inlet*Frame2*Frame2" 4)
(cx-gui-do cx-activate-tab-index "Velocity Inlet*Frame2*Frame2" 0)
(cx-gui-do cx-activate-tab-index "Velocity Inlet*Frame2*Frame2" 5)
(cx-gui-do cx-activate-tab-index "Velocity Inlet*Frame2*Frame2" 0)
(cx-gui-do cx-activate-tab-index "Velocity Inlet*Frame2*Frame2" 6)
(cx-gui-do cx-activate-tab-index "Velocity Inlet*Frame2*Frame2" 0)
(cx-gui-do cx-activate-tab-index "Velocity Inlet*Frame2*Frame2" 7)
(cx-gui-do cx-activate-tab-index "Velocity Inlet*Frame2*Frame2" 0)
(cx-gui-do cx-activate-tab-index "Velocity Inlet*Frame2*Frame2" 8)
(cx-gui-do cx-activate-tab-index "Velocity Inlet*Frame2*Frame2" 0)
(cx-gui-do cx-activate-item "Velocity Inlet*PanelButtons*PushButton1(OK)")
(cx-gui-do cx-activate-item "Velocity Inlet*PanelButtons*PushButton1(OK)")
(cx-gui-do cx-activate-item "Velocity Inlet*PanelButtons*PushButton2(Cancel)")
(cx-gui-do cx-set-list-tree-selections "NavigationPane*Frame2*Table1*List_Tree2" (list "Setup|Cell Zone Conditions|Fluid|fluid (fluid, id=4)"))
(cx-gui-do cx-set-list-tree-selections "NavigationPane*Frame2*Table1*List_Tree2" (list "Setup|Cell Zone Conditions|Fluid|fluid (fluid, id=4)"))
(cx-gui-do cx-activate-item "NavigationPane*Frame2*Table1*List_Tree2")
(cx-gui-do cx-set-list-tree-selections "NavigationPane*Frame2*Table1*List_Tree2" (list "Setup|Cell Zone Conditions|Fluid|fluid (fluid, id=4)"))
(cx-gui-do cx-activate-tab-index "Fluid*Frame2*Table3*Frame1" 0)
(cx-gui-do cx-activate-tab-index "Fluid*Frame2*Table3*Frame1" 1)
(cx-gui-do cx-activate-tab-index "Fluid*Frame2*Table3*Frame1" 0)
(cx-gui-do cx-activate-tab-index "Fluid*Frame2*Table3*Frame1" 2)
(cx-gui-do cx-activate-tab-index "Fluid*Frame2*Table3*Frame1" 0)
(cx-gui-do cx-activate-tab-index "Fluid*Frame2*Table3*Frame1" 2)
(cx-gui-do cx-activate-tab-index "Fluid*Frame2*Table3*Frame1" 0)
(cx-gui-do cx-activate-tab-index "Fluid*Frame2*Table3*Frame1" 3)
(cx-gui-do cx-activate-tab-index "Fluid*Frame2*Table3*Frame1" 0)
(cx-gui-do cx-activate-tab-index "Fluid*Frame2*Table3*Frame1" 4)
(cx-gui-do cx-activate-tab-index "Fluid*Frame2*Table3*Frame1" 0)
(cx-gui-do cx-activate-tab-index "Fluid*Frame2*Table3*Frame1" 5)
(cx-gui-do cx-activate-tab-index "Fluid*Frame2*Table3*Frame1" 0)
(cx-gui-do cx-activate-tab-index "Fluid*Frame2*Table3*Frame1" 6)
(cx-gui-do cx-activate-tab-index "Fluid*Frame2*Table3*Frame1" 0)
(cx-gui-do cx-activate-tab-index "Fluid*Frame2*Table3*Frame1" 7)
(cx-gui-do cx-activate-tab-index "Fluid*Frame2*Table3*Frame1" 0)
(cx-gui-do cx-activate-tab-index "Fluid*Frame2*Table3*Frame1" 8)
(cx-gui-do cx-activate-tab-index "Fluid*Frame2*Table3*Frame1" 0)
(cx-gui-do cx-activate-tab-index "Fluid*Frame2*Table3*Frame1" 9)
(cx-gui-do cx-activate-tab-index "Fluid*Frame2*Table3*Frame1" 0)
(cx-gui-do cx-activate-item "Fluid*PanelButtons*PushButton2(Cancel)")
(cx-gui-do cx-set-list-tree-selections "NavigationPane*Frame2*Table1*List_Tree2" (list "Setup|Materials|Fluid|air"))
(cx-gui-do cx-set-list-tree-selections "NavigationPane*Frame2*Table1*List_Tree2" (list "Setup|Materials|Fluid|air"))
(cx-gui-do cx-activate-item "NavigationPane*Frame2*Table1*List_Tree2")
(cx-gui-do cx-set-list-tree-selections "NavigationPane*Frame2*Table1*List_Tree2" (list "Setup|Materials|Fluid|air"))
(cx-gui-do cx-activate-item "Create/Edit Materials*PanelButtons*PushButton1(Close)")
(cx-use-window-id 51)
(dolly-camera 0.00475542 -0.0141571 0)
(cx-gui-do cx-activate-item "MenuBar*ReadSubMenu*Journal...")

Reading journal file C:/Users/V.Chepuri/OneDrive - Cranfield University/irp/pablo/AOA_0/template.jou...

> ;change to correct dir
chdir C:\Users\Usuario\Desktop\CFD_MSc\Publication\data\field_data\homogeneous_sweeps_AoA4\porous_ID0007
Error: Unable to change directory to C:\\Users\\Usuario\\Desktop\\CFD_MSc\\Publication\\data\\field_data\\homogeneous_sweeps_AoA4\\porous_ID0007.\\n
> file/read-case template_medium.cas.h5 OK

37PCL051 has other FLUENT parallel processes running.                       Process affinity not being set.

       Clearing partially read grid.

Reading from 37PCL051:"C:\Users\V.Chepuri\OneDrive - Cranfield University\irp\pablo\AOA_0\template_medium.cas.h5" in NODE0 mode ...
  Reading mesh ...
      181070 cells,     4 cell zones ...
          36824 mixed cells,  zone id: 2
         108032 mixed cells,  zone id: 4
          27008 mixed cells,  zone id: 12
           9206 mixed cells,  zone id: 11
      309160 faces,    14 face zones ...
          65137 2D interior faces,  zone id: 3
         181145 2D interior faces,  zone id: 5
             42 2D velocity-inlet faces,  zone id: 6
             38 2D pressure-outlet faces,  zone id: 7
             40 2D velocity-inlet faces,  zone id: 8
            458 2D interior faces,  zone id: 9
            456 2D interior faces,  zone id: 10
            228 2D parent-face faces,  zone id: 19
            229 2D parent-face faces,  zone id: 18
             20 2D parent-face faces,  zone id: 17
             19 2D parent-face faces,  zone id: 16
             21 2D parent-face faces,  zone id: 15
          45157 2D parent-face faces,  zone id: 14
          16170 2D parent-face faces,  zone id: 13
      102461 nodes,     1 node zone  ...
  Done.


Building...
     mesh
     materials,
     interface,
     domains,
	mixture
     zones,
	outlet
	inlet
	interior-fluid
	interior-porous
	symmetry
	upper
	lower
	fluid
	porous
WARNING: "Smooth" contours can't be displayed when node-values is set to off. Changing the Coloring type to "Banded".
     parallel,
Done.

> 
adjoint/                parallel/               server/
define/                 parametric-study/       solve/
display/                plot/                   surface/
exit                    preferences/            views/
file/                   print-license-usage
mesh/                   report/

> ;modify permeability parameters
define/named-expressions/edit a definition " 0.0 " q q q

> define/named-expressions/edit b definition " 0.0 " q q q

> define/named-expressions/edit c definition " 0.0 " q q q

> define/named-expressions/edit d definition " 0.0 " q q q

> define/named-expressions/edit e1 definition " -5.0 " q q q

> define/named-expressions/edit a2 definition " 0.0 " q q q

> define/named-expressions/edit b2 definition " 0.0 " q q q

> define/named-expressions/edit c2 definition " 0.0 " q q q

> define/named-expressions/edit d2 definition " 0.0 " q q q

> define/named-expressions/edit e2 definition " -5.0 " q q q

> 
adjoint/                parallel/               server/
define/                 parametric-study/       solve/
display/                plot/                   surface/
exit                    preferences/            views/
file/                   print-license-usage
mesh/                   report/

> ;run simulation
solve/initialize/initialize-flow

> solve/iterate 2000

  iter  continuity  x-velocity  y-velocity     time/iter
     1  1.0000e+00  5.4937e-05  1.5034e-02  0:00:00 1999
     2  9.8894e-01  1.6158e-04  1.0944e-02  0:33:18 1998
     3  5.3379e-01  1.5246e-04  7.7490e-03  0:26:38 1997
     4  3.4284e-01  1.3222e-04  5.0429e-03  0:27:57 1996
     5  2.4590e-01  1.1207e-04  3.0331e-03  0:22:21 1995
     6  1.9108e-01  9.5576e-05  1.7043e-03  0:17:52 1994
     7  1.5524e-01  8.3619e-05  9.1867e-04  0:20:56 1993
     8  1.3168e-01  7.3941e-05  4.8309e-04  0:16:44 1992
     9  1.1261e-01  6.5494e-05  2.5078e-04  0:13:23 1991
    10  9.7143e-02  5.7930e-05  1.2942e-04  0:10:42 1990
    11  8.4343e-02  5.0715e-05  6.6943e-05  0:15:11 1989

  iter  continuity  x-velocity  y-velocity     time/iter
    12  7.2748e-02  4.4389e-05  3.5268e-05  0:12:09 1988
    13  6.2968e-02  3.8692e-05  1.9296e-05  0:16:20 1987
    14  5.4345e-02  3.3499e-05  1.1191e-05  0:13:04 1986
    15  4.6851e-02  2.8775e-05  7.0148e-06  0:10:27 1985
    16  4.0114e-02  2.4052e-05  4.7844e-06  0:14:58 1984
    17  3.5825e-02  2.0886e-05  3.6215e-06  0:11:58 1983
    18  3.1209e-02  1.7463e-05  2.9107e-06  0:09:34 1982
    19  2.7424e-02  1.4863e-05  2.4651e-06  0:07:39 1981
    20  2.4230e-02  1.2827e-05  2.1575e-06  0:06:07 1980
    21  2.1463e-02  1.1080e-05  1.9269e-06  0:11:29 1979
    22  1.9145e-02  9.6041e-06  1.7336e-06  0:09:11 1978

  iter  continuity  x-velocity  y-velocity     time/iter
    23  1.7288e-02  8.6215e-06  1.5734e-06  0:07:21 1977
    24  1.5260e-02  7.3987e-06  1.4158e-06  0:05:52 1976
    25  1.3573e-02  6.4705e-06  1.2847e-06  0:11:17 1975
    26  1.2111e-02  5.6985e-06  1.1729e-06  0:09:01 1974
    27  1.0765e-02  5.0045e-06  1.0742e-06  0:07:13 1973
    28  9.6710e-03  4.4122e-06  9.8984e-07  0:05:46 1972
    29  8.7044e-03  3.8792e-06  9.1798e-07  0:11:11 1971
    30  7.8457e-03  3.3851e-06  8.5798e-07  0:08:56 1970
    31  7.1173e-03  2.9482e-06  8.0346e-07  0:07:09 1969
    32  6.4728e-03  2.5951e-06  7.6091e-07  0:05:43 1968
    33  5.8733e-03  2.2526e-06  7.1982e-07  0:11:08 1967

  iter  continuity  x-velocity  y-velocity     time/iter
    34  5.3275e-03  1.9460e-06  6.8125e-07  0:08:54 1966
    35  4.8648e-03  1.6979e-06  6.4703e-07  0:07:07 1965
    36  4.4472e-03  1.4838e-06  6.1572e-07  0:05:41 1964
    37  4.0837e-03  1.2961e-06  5.8557e-07  0:11:05 1963
    38  3.7627e-03  1.1334e-06  5.5852e-07  0:08:52 1962
    39  3.4713e-03  9.9531e-07  5.3325e-07  0:07:05 1961
    40  3.2060e-03  8.8508e-07  5.1092e-07  0:05:40 1960
    41  2.9658e-03  7.9289e-07  4.9120e-07  0:11:04 1959
    42  2.7430e-03  7.1068e-07  4.7353e-07  0:08:51 1958
    43  2.5480e-03  6.4674e-07  4.5741e-07  0:07:04 1957
    44  2.3779e-03  5.9215e-07  4.4248e-07  0:05:39 1956

  iter  continuity  x-velocity  y-velocity     time/iter
    45  2.2346e-03  5.4706e-07  4.2900e-07  0:04:31 1955
    46  2.1095e-03  5.0901e-07  4.1672e-07  0:10:08 1954
    47  1.9965e-03  4.7299e-07  4.0557e-07  0:08:06 1953
    48  1.8956e-03  4.4090e-07  3.9514e-07  0:06:29 1952
    49  1.8067e-03  4.1053e-07  3.8515e-07  0:05:11 1951
    50  1.7279e-03  3.8051e-07  3.7586e-07  0:10:38 1950
    51  1.6524e-03  3.5424e-07  3.6705e-07  0:08:30 1949
    52  1.5802e-03  3.2999e-07  3.5850e-07  0:06:48 1948
    53  1.5128e-03  3.0790e-07  3.5036e-07  0:05:26 1947
    54  1.4514e-03  2.8995e-07  3.4273e-07  0:10:50 1946
    55  1.3961e-03  2.7372e-07  3.3546e-07  0:08:40 1945

  iter  continuity  x-velocity  y-velocity     time/iter
    56  1.3450e-03  2.5807e-07  3.2859e-07  0:06:56 1944
    57  1.2968e-03  2.4305e-07  3.2220e-07  0:05:32 1943
    58  1.2532e-03  2.2999e-07  3.1609e-07  0:10:54 1942
    59  1.2157e-03  2.2068e-07  3.0830e-07  0:08:43 1941
    60  1.1766e-03  2.0765e-07  3.0395e-07  0:06:58 1940
    61  1.1413e-03  1.9727e-07  2.9915e-07  0:12:02 1939
    62  1.1085e-03  1.8963e-07  2.9229e-07  0:09:37 1938
    63  1.0728e-03  1.7830e-07  2.8879e-07  0:07:42 1937
    64  1.0445e-03  1.7160e-07  2.8286e-07  0:06:09 1936
    65  1.0146e-03  1.6254e-07  2.7965e-07  0:11:22 1935
    66  9.9066e-04  1.5731e-07  2.7409e-07  0:09:05 1934

  iter  continuity  x-velocity  y-velocity     time/iter
    67  9.6781e-04  1.5162e-07  2.6956e-07  0:07:16 1933
    68  9.4552e-04  1.4647e-07  2.6552e-07  0:12:15 1932
    69  9.2488e-04  1.4171e-07  2.6184e-07  0:09:48 1931
    70  9.0445e-04  1.3709e-07  2.5837e-07  0:07:50 1930
    71  8.8399e-04  1.3270e-07  2.5494e-07  0:06:16 1929
    72  8.6492e-04  1.2876e-07  2.5151e-07  0:11:26 1928
    73  8.4658e-04  1.2500e-07  2.4810e-07  0:09:09 1927
    74  8.2899e-04  1.2133e-07  2.4471e-07  0:07:19 1926
    75  8.1285e-04  1.1798e-07  2.4137e-07  0:12:16 1925
    76  7.9778e-04  1.1492e-07  2.3819e-07  0:09:48 1924
    77  7.8350e-04  1.1219e-07  2.3515e-07  0:07:50 1923

  iter  continuity  x-velocity  y-velocity     time/iter
    78  7.6982e-04  1.0968e-07  2.3221e-07  0:06:16 1922
    79  7.5684e-04  1.0741e-07  2.2929e-07  0:11:25 1921
    80  7.4470e-04  1.0532e-07  2.2642e-07  0:09:08 1920
    81  7.3328e-04  1.0341e-07  2.2358e-07  0:07:18 1919
    82  7.2238e-04  1.0170e-07  2.2082e-07  0:12:14 1918
    83  7.1202e-04  1.0009e-07  2.1813e-07  0:09:47 1917
    84  7.0206e-04  9.8577e-08  2.1549e-07  0:07:49 1916
    85  6.9258e-04  9.7138e-08  2.1289e-07  0:06:15 1915
    86  6.8352e-04  9.5767e-08  2.1035e-07  0:11:23 1914
    87  6.7479e-04  9.4444e-08  2.0795e-07  0:09:06 1913
    88  6.6643e-04  9.3192e-08  2.0566e-07  0:07:16 1912

  iter  continuity  x-velocity  y-velocity     time/iter
    89  6.5848e-04  9.2005e-08  2.0345e-07  0:12:11 1911
    90  6.5088e-04  9.0875e-08  2.0131e-07  0:09:45 1910
    91  6.4358e-04  8.9792e-08  1.9922e-07  0:07:47 1909
    92  6.3648e-04  8.8720e-08  1.9716e-07  0:06:14 1908
    93  6.2962e-04  8.7680e-08  1.9512e-07  0:11:20 1907
    94  6.2294e-04  8.6677e-08  1.9310e-07  0:09:04 1906
    95  6.1641e-04  8.5699e-08  1.9110e-07  0:07:15 1905
    96  6.1006e-04  8.4749e-08  1.8914e-07  0:12:09 1904
    97  6.0381e-04  8.3831e-08  1.8719e-07  0:09:43 1903
    98  5.9776e-04  8.2959e-08  1.8524e-07  0:07:46 1902
    99  5.9194e-04  8.2111e-08  1.8333e-07  0:06:12 1901

  iter  continuity  x-velocity  y-velocity     time/iter
   100  5.8633e-04  8.1301e-08  1.8145e-07  0:11:18 1900
   101  5.8058e-04  8.0449e-08  1.7962e-07  0:09:02 1899
   102  5.7491e-04  7.9622e-08  1.7781e-07  0:07:13 1898
   103  5.6935e-04  7.8822e-08  1.7603e-07  0:12:06 1897
   104  5.6387e-04  7.8054e-08  1.7427e-07  0:09:40 1896
   105  5.5846e-04  7.7317e-08  1.7254e-07  0:07:44 1895
   106  5.5318e-04  7.6606e-08  1.7087e-07  0:06:11 1894
   107  5.4805e-04  7.5918e-08  1.6923e-07  0:11:15 1893
   108  5.4316e-04  7.5257e-08  1.6765e-07  0:09:00 1892
   109  5.3850e-04  7.4605e-08  1.6612e-07  0:07:12 1891
   110  5.3407e-04  7.3969e-08  1.6463e-07  0:12:03 1890

  iter  continuity  x-velocity  y-velocity     time/iter
   111  5.2974e-04  7.3346e-08  1.6318e-07  0:09:38 1889
   112  5.2551e-04  7.2726e-08  1.6174e-07  0:07:42 1888
   113  5.2136e-04  7.2104e-08  1.6032e-07  0:12:27 1887
   114  5.1733e-04  7.1491e-08  1.5892e-07  0:09:57 1886
   115  5.1343e-04  7.0897e-08  1.5752e-07  0:07:58 1885
   116  5.0959e-04  7.0314e-08  1.5616e-07  0:06:22 1884
   117  5.0591e-04  6.9740e-08  1.5484e-07  0:11:22 1883
   118  5.0227e-04  6.9177e-08  1.5355e-07  0:09:05 1882
   119  4.9864e-04  6.8624e-08  1.5228e-07  0:07:16 1881
   120  4.9507e-04  6.8083e-08  1.5104e-07  0:12:05 1880
   121  4.9156e-04  6.7555e-08  1.4982e-07  0:09:39 1879

  iter  continuity  x-velocity  y-velocity     time/iter
   122  4.8807e-04  6.7043e-08  1.4862e-07  0:07:43 1878
   123  4.8462e-04  6.6545e-08  1.4742e-07  0:06:10 1877
   124  4.8111e-04  6.6056e-08  1.4624e-07  0:11:11 1876
   125  4.7753e-04  6.5571e-08  1.4508e-07  0:08:57 1875
   126  4.7395e-04  6.5090e-08  1.4392e-07  0:07:09 1874
   127  4.7047e-04  6.4619e-08  1.4278e-07  0:05:43 1873
   128  4.6707e-04  6.4156e-08  1.4166e-07  0:10:49 1872
   129  4.6372e-04  6.3694e-08  1.4056e-07  0:08:39 1871
   130  4.6046e-04  6.3236e-08  1.3946e-07  0:06:55 1870
   131  4.5728e-04  6.2784e-08  1.3839e-07  0:11:45 1869
   132  4.5419e-04  6.2337e-08  1.3733e-07  0:09:24 1868

  iter  continuity  x-velocity  y-velocity     time/iter
   133  4.5120e-04  6.1896e-08  1.3629e-07  0:07:31 1867
   134  4.4823e-04  6.1459e-08  1.3526e-07  0:06:01 1866
   135  4.4525e-04  6.1026e-08  1.3423e-07  0:11:01 1865
   136  4.4231e-04  6.0597e-08  1.3321e-07  0:08:49 1864
   137  4.3945e-04  6.0172e-08  1.3219e-07  0:07:03 1863
   138  4.3663e-04  5.9753e-08  1.3118e-07  0:11:50 1862
   139  4.3388e-04  5.9338e-08  1.3017e-07  0:09:28 1861
   140  4.3117e-04  5.8929e-08  1.2918e-07  0:07:34 1860
   141  4.2848e-04  5.8523e-08  1.2820e-07  0:06:03 1859
   142  4.2585e-04  5.8122e-08  1.2722e-07  0:11:02 1858
   143  4.2331e-04  5.7727e-08  1.2626e-07  0:08:49 1857

  iter  continuity  x-velocity  y-velocity     time/iter
   144  4.2081e-04  5.7337e-08  1.2530e-07  0:07:03 1856
   145  4.1833e-04  5.6951e-08  1.2437e-07  0:05:38 1855
   146  4.1588e-04  5.6569e-08  1.2346e-07  0:10:41 1854
   147  4.1349e-04  5.6193e-08  1.2256e-07  0:08:33 1853
   148  4.1119e-04  5.5821e-08  1.2170e-07  0:06:50 1852
   149  4.0895e-04  5.5458e-08  1.2086e-07  0:11:38 1851
   150  4.0675e-04  5.5102e-08  1.2005e-07  0:09:18 1850
   151  4.0452e-04  5.4756e-08  1.1924e-07  0:07:26 1849
   152  4.0229e-04  5.4419e-08  1.1844e-07  0:05:57 1848
   153  4.0009e-04  5.4088e-08  1.1765e-07  0:10:55 1847
   154  3.9794e-04  5.3765e-08  1.1687e-07  0:08:43 1846

  iter  continuity  x-velocity  y-velocity     time/iter
   155  3.9584e-04  5.3447e-08  1.1612e-07  0:13:08 1845
   156  3.9377e-04  5.3131e-08  1.1538e-07  0:10:30 1844
   157  3.9170e-04  5.2817e-08  1.1464e-07  0:08:23 1843
   158  3.8962e-04  5.2501e-08  1.1390e-07  0:06:43 1842
   159  3.8680e-04  5.1627e-08  1.1360e-07  0:11:30 1841
   160  3.8533e-04  5.1890e-08  1.1250e-07  0:09:12 1840
   161  3.8366e-04  5.1845e-08  1.1162e-07  0:07:21 1839
   162  3.8176e-04  5.1592e-08  1.1084e-07  0:12:00 1838
   163  3.7981e-04  5.1281e-08  1.1011e-07  0:09:36 1837
   164  3.7785e-04  5.0944e-08  1.0941e-07  0:07:41 1836
   165  3.7512e-04  5.0050e-08  1.0914e-07  0:06:08 1835

  iter  continuity  x-velocity  y-velocity     time/iter
   166  3.7373e-04  5.0193e-08  1.0813e-07  0:11:01 1834
   167  3.7234e-04  5.0124e-08  1.0734e-07  0:08:49 1833
   168  3.7083e-04  4.9879e-08  1.0666e-07  0:07:03 1832
   169  3.6933e-04  4.9585e-08  1.0607e-07  0:05:38 1831
   170  3.6695e-04  4.8730e-08  1.0592e-07  0:10:36 1830
   171  3.6585e-04  4.8880e-08  1.0504e-07  0:08:29 1829
   172  3.6466e-04  4.8819e-08  1.0436e-07  0:06:47 1828
   173  3.6326e-04  4.8588e-08  1.0377e-07  0:05:25 1827
   174  3.6093e-04  4.7758e-08  1.0361e-07  0:10:25 1826
   175  3.5988e-04  4.7951e-08  1.0275e-07  0:08:20 1825
   176  3.5869e-04  4.7895e-08  1.0208e-07  0:06:40 1824

  iter  continuity  x-velocity  y-velocity     time/iter
   177  3.5729e-04  4.7668e-08  1.0150e-07  0:11:24 1823
   178  3.5495e-04  4.6853e-08  1.0134e-07  0:09:07 1822
   179  3.5391e-04  4.7017e-08  1.0049e-07  0:07:17 1821
   180  3.5277e-04  4.6953e-08  9.9855e-08  0:05:50 1820
   181  3.5052e-04  4.6160e-08  9.9678e-08  0:10:43 1819
   182  3.4963e-04  4.6401e-08  9.8849e-08  0:08:34 1818
   183  3.4852e-04  4.6335e-08  9.8223e-08  0:06:51 1817
   184  3.4627e-04  4.5539e-08  9.8067e-08  0:05:29 1816
   185  3.4536e-04  4.5761e-08  9.7273e-08  0:10:26 1815
   186  3.4425e-04  4.5691e-08  9.6668e-08  0:08:20 1814
   187  3.4197e-04  4.4903e-08  9.6505e-08  0:06:40 1813

  iter  continuity  x-velocity  y-velocity     time/iter
   188  3.4106e-04  4.5092e-08  9.5716e-08  0:11:22 1812
   189  3.3998e-04  4.5014e-08  9.5122e-08  0:09:06 1811
   190  3.3767e-04  4.4234e-08  9.4958e-08  0:07:16 1810
   191  3.3679e-04  4.4404e-08  9.4174e-08  0:05:49 1809
   192  3.3570e-04  4.4317e-08  9.3580e-08  0:10:40 1808
   193  3.3335e-04  4.3543e-08  9.3409e-08  0:08:32 1807
   194  3.3258e-04  4.3706e-08  9.2623e-08  0:06:49 1806
   195  3.3161e-04  4.3616e-08  9.2030e-08  0:05:27 1805
   196  3.2939e-04  4.2853e-08  9.1870e-08  0:10:23 1804
   197  3.2871e-04  4.3014e-08  9.1126e-08  0:08:18 1803
   198  3.2772e-04  4.2926e-08  9.0558e-08  0:06:38 1802

  iter  continuity  x-velocity  y-velocity     time/iter
   199  3.2542e-04  4.2177e-08  9.0402e-08  0:05:18 1801
   200  3.2462e-04  4.2335e-08  8.9673e-08  0:10:14 1800
   201  3.2247e-04  4.1709e-08  8.9447e-08  0:08:11 1799
   202  3.2184e-04  4.2000e-08  8.8685e-08  0:06:33 1798
   203  3.2071e-04  4.1914e-08  8.8110e-08  0:11:13 1797
   204  3.1825e-04  4.1153e-08  8.7934e-08  0:08:58 1796
   205  3.1737e-04  4.1302e-08  8.7215e-08  0:07:11 1795
   206  3.1517e-04  4.0683e-08  8.6986e-08  0:11:43 1794
   207  3.1450e-04  4.0938e-08  8.6245e-08  0:09:22 1793
   208  3.1230e-04  4.0299e-08  8.6010e-08  0:07:29 1792
   209  3.1171e-04  4.0588e-08  8.5279e-08  0:05:59 1791

  iter  continuity  x-velocity  y-velocity     time/iter
   210  3.1064e-04  4.0503e-08  8.4734e-08  0:10:45 1790
   211  3.0824e-04  3.9765e-08  8.4573e-08  0:08:36 1789
   212  3.0739e-04  3.9877e-08  8.3893e-08  0:06:53 1788
   213  3.0526e-04  3.9284e-08  8.3686e-08  0:05:30 1787
   214  3.0462e-04  3.9502e-08  8.2983e-08  0:10:21 1786
   215  3.0248e-04  3.8890e-08  8.2768e-08  0:08:16 1785
   216  3.0189e-04  3.9154e-08  8.2085e-08  0:06:37 1784
   217  2.9974e-04  3.8537e-08  8.1880e-08  0:05:17 1783
   218  2.9914e-04  3.8804e-08  8.1202e-08  0:10:10 1782
   219  2.9703e-04  3.8195e-08  8.0994e-08  0:08:08 1781
   220  2.9647e-04  3.8446e-08  8.0324e-08  0:06:30 1780

  iter  continuity  x-velocity  y-velocity     time/iter
   221  2.9440e-04  3.7847e-08  8.0127e-08  0:05:12 1779
   222  2.9388e-04  3.8083e-08  7.9484e-08  0:10:05 1778
   223  2.9189e-04  3.7493e-08  7.9306e-08  0:08:04 1777
   224  2.9141e-04  3.7721e-08  7.8678e-08  0:06:27 1776
   225  2.8945e-04  3.7140e-08  7.8508e-08  0:05:09 1775
   226  2.8901e-04  3.7364e-08  7.7891e-08  0:10:02 1774
   227  2.8710e-04  3.6792e-08  7.7721e-08  0:08:01 1773
   228  2.8669e-04  3.7015e-08  7.7110e-08  0:06:25 1772
   229  2.8480e-04  3.6449e-08  7.6945e-08  0:05:08 1771
   230  2.8441e-04  3.6670e-08  7.6343e-08  0:10:00 1770
   231  2.8254e-04  3.6109e-08  7.6181e-08  0:08:00 1769

  iter  continuity  x-velocity  y-velocity     time/iter
   232  2.8215e-04  3.6331e-08  7.5586e-08  0:06:24 1768
   233  2.8031e-04  3.5775e-08  7.5432e-08  0:05:07 1767
   234  2.7994e-04  3.5995e-08  7.4840e-08  0:09:58 1766
   235  2.7814e-04  3.5445e-08  7.4678e-08  0:07:58 1765
   236  2.7779e-04  3.5665e-08  7.4095e-08  0:06:23 1764
   237  2.7600e-04  3.5121e-08  7.3943e-08  0:05:06 1763
   238  2.7564e-04  3.5337e-08  7.3367e-08  0:09:57 1762
   239  2.7384e-04  3.4802e-08  7.3215e-08  0:07:57 1761
   240  2.7348e-04  3.5015e-08  7.2645e-08  0:06:22 1760
   241  2.7169e-04  3.4487e-08  7.2493e-08  0:05:05 1759
   242  2.7133e-04  3.4700e-08  7.1928e-08  0:09:56 1758

  iter  continuity  x-velocity  y-velocity     time/iter
   243  2.6957e-04  3.4176e-08  7.1772e-08  0:07:56 1757
   244  2.6921e-04  3.4384e-08  7.1206e-08  0:06:21 1756
   245  2.6748e-04  3.3866e-08  7.1046e-08  0:05:04 1755
   246  2.6625e-04  3.3650e-08  7.0766e-08  0:09:54 1754
   247  2.6624e-04  3.4039e-08  7.0146e-08  0:07:55 1753
   248  2.6453e-04  3.3492e-08  6.9971e-08  0:06:20 1752
   249  2.6430e-04  3.3752e-08  6.9423e-08  0:05:04 1751
   250  2.6262e-04  3.3233e-08  6.9280e-08  0:09:53 1750
   251  2.6140e-04  3.2995e-08  6.9023e-08  0:07:54 1749
   252  2.6138e-04  3.3355e-08  6.8432e-08  0:06:19 1748
   253  2.5973e-04  3.2830e-08  6.8274e-08  0:10:52 1747

  iter  continuity  x-velocity  y-velocity     time/iter
   254  2.5950e-04  3.3057e-08  6.7752e-08  0:08:42 1746
   255  2.5788e-04  3.2558e-08  6.7626e-08  0:06:57 1745
   256  2.5671e-04  3.2315e-08  6.7387e-08  0:11:22 1744
   257  2.5670e-04  3.2642e-08  6.6822e-08  0:09:05 1743
   258  2.5509e-04  3.2128e-08  6.6679e-08  0:07:16 1742
   259  2.5398e-04  3.1919e-08  6.6439e-08  0:05:49 1741
   260  2.5402e-04  3.2275e-08  6.5883e-08  0:04:39 1740
   261  2.5243e-04  3.1764e-08  6.5747e-08  0:09:31 1739
   262  2.5132e-04  3.1546e-08  6.5515e-08  0:07:36 1738
   263  2.5138e-04  3.1892e-08  6.4970e-08  0:06:05 1737
   264  2.4982e-04  3.1395e-08  6.4840e-08  0:04:52 1736

  iter  continuity  x-velocity  y-velocity     time/iter
   265  2.4873e-04  3.1173e-08  6.4617e-08  0:09:40 1735
   266  2.4879e-04  3.1503e-08  6.4087e-08  0:07:44 1734
   267  2.4726e-04  3.1016e-08  6.3961e-08  0:06:11 1733
   268  2.4616e-04  3.0781e-08  6.3744e-08  0:04:57 1732
   269  2.4621e-04  3.1088e-08  6.3225e-08  0:09:43 1731
   270  2.4471e-04  3.0616e-08  6.3104e-08  0:07:46 1730
   271  2.4366e-04  3.0399e-08  6.2894e-08  0:06:13 1729
   272  2.4374e-04  3.0715e-08  6.2387e-08  0:04:58 1728
   273  2.4225e-04  3.0238e-08  6.2273e-08  0:09:44 1727
   274  2.4123e-04  3.0030e-08  6.2070e-08  0:07:47 1726
   275  2.4133e-04  3.0352e-08  6.1576e-08  0:06:13 1725

  iter  continuity  x-velocity  y-velocity     time/iter
   276  2.3990e-04  2.9883e-08  6.1468e-08  0:04:58 1724
   277  2.3891e-04  2.9679e-08  6.1276e-08  0:09:43 1723
   278  2.3815e-04  2.9590e-08  6.1040e-08  0:07:46 1722
   279  2.3842e-04  2.9981e-08  6.0544e-08  0:06:13 1721
   280  2.3699e-04  2.9498e-08  6.0440e-08  0:04:58 1720
   281  2.3601e-04  2.9292e-08  6.0252e-08  0:09:42 1719
   282  2.3523e-04  2.9195e-08  6.0011e-08  0:07:45 1718
   283  2.3549e-04  2.9578e-08  5.9515e-08  0:06:12 1717
   284  2.3407e-04  2.9111e-08  5.9401e-08  0:04:58 1716
   285  2.3311e-04  2.8895e-08  5.9216e-08  0:09:41 1715
   286  2.3237e-04  2.8782e-08  5.8992e-08  0:07:44 1714

  iter  continuity  x-velocity  y-velocity     time/iter
   287  2.3267e-04  2.9140e-08  5.8523e-08  0:06:11 1713
   288  2.3134e-04  2.8681e-08  5.8431e-08  0:04:57 1712
   289  2.3041e-04  2.8464e-08  5.8262e-08  0:09:40 1711
   290  2.2967e-04  2.8348e-08  5.8047e-08  0:07:43 1710
   291  2.2992e-04  2.8690e-08  5.7582e-08  0:06:10 1709
   292  2.2857e-04  2.8236e-08  5.7484e-08  0:04:56 1708
   293  2.2763e-04  2.8022e-08  5.7311e-08  0:09:38 1707
   294  2.2689e-04  2.7909e-08  5.7097e-08  0:07:42 1706
   295  2.2624e-04  2.7844e-08  5.6862e-08  0:06:10 1705
   296  2.2653e-04  2.8215e-08  5.6399e-08  0:04:56 1704
   297  2.2518e-04  2.7758e-08  5.6305e-08  0:09:37 1703

  iter  continuity  x-velocity  y-velocity     time/iter
   298  2.2425e-04  2.7543e-08  5.6142e-08  0:07:41 1702
   299  2.2351e-04  2.7425e-08  5.5938e-08  0:06:09 1701
   300  2.2286e-04  2.7357e-08  5.5716e-08  0:10:35 1700
   301  2.2312e-04  2.7715e-08  5.5269e-08  0:08:28 1699
   302  2.2182e-04  2.7279e-08  5.5185e-08  0:06:46 1698
   303  2.2090e-04  2.7066e-08  5.5030e-08  0:05:24 1697
   304  2.2017e-04  2.6946e-08  5.4835e-08  0:09:59 1696
   305  2.1952e-04  2.6872e-08  5.4621e-08  0:07:59 1695
   306  2.1890e-04  2.6816e-08  5.4400e-08  0:06:23 1694
   307  2.1830e-04  2.6763e-08  5.4179e-08  0:05:06 1693
   308  2.1860e-04  2.7134e-08  5.3749e-08  0:09:43 1692

  iter  continuity  x-velocity  y-velocity     time/iter
   309  2.1734e-04  2.6703e-08  5.3678e-08  0:07:46 1691
   310  2.1644e-04  2.6482e-08  5.3538e-08  0:06:13 1690
   311  2.1572e-04  2.6347e-08  5.3358e-08  0:04:58 1689
   312  2.1507e-04  2.6256e-08  5.3159e-08  0:03:58 1688
   313  2.1447e-04  2.6188e-08  5.2953e-08  0:08:48 1687
   314  2.1387e-04  2.6127e-08  5.2745e-08  0:07:02 1686
   315  2.1329e-04  2.6066e-08  5.2538e-08  0:05:37 1685
   316  2.1271e-04  2.6005e-08  5.2333e-08  0:04:30 1684
   317  2.1212e-04  2.5941e-08  5.2131e-08  0:09:12 1683
   318  2.1153e-04  2.5874e-08  5.1929e-08  0:07:22 1682
   319  2.1092e-04  2.5803e-08  5.1731e-08  0:05:53 1681

  iter  continuity  x-velocity  y-velocity     time/iter
   320  2.1032e-04  2.5730e-08  5.1535e-08  0:04:42 1680
   321  2.0970e-04  2.5654e-08  5.1341e-08  0:09:21 1679
   322  2.0909e-04  2.5575e-08  5.1147e-08  0:07:29 1678
   323  2.0847e-04  2.5493e-08  5.0955e-08  0:05:59 1677
   324  2.0784e-04  2.5409e-08  5.0763e-08  0:04:47 1676
   325  2.0722e-04  2.5323e-08  5.0571e-08  0:03:49 1675
   326  2.0658e-04  2.5234e-08  5.0380e-08  0:08:38 1674
   327  2.0595e-04  2.5144e-08  5.0189e-08  0:06:54 1673
   328  2.0532e-04  2.5052e-08  4.9998e-08  0:05:31 1672
   329  2.0468e-04  2.4960e-08  4.9807e-08  0:04:25 1671
   330  2.0400e-04  2.4866e-08  4.9615e-08  0:09:06 1670

  iter  continuity  x-velocity  y-velocity     time/iter
   331  2.0332e-04  2.4771e-08  4.9420e-08  0:07:16 1669
   332  2.0264e-04  2.4676e-08  4.9226e-08  0:05:49 1668
   333  2.0197e-04  2.4581e-08  4.9032e-08  0:04:39 1667
   334  2.0129e-04  2.4486e-08  4.8839e-08  0:09:16 1666
   335  2.0064e-04  2.4393e-08  4.8648e-08  0:07:25 1665
   336  2.0000e-04  2.4300e-08  4.8461e-08  0:05:56 1664
   337  1.9936e-04  2.4208e-08  4.8274e-08  0:04:44 1663
   338  1.9873e-04  2.4117e-08  4.8087e-08  0:03:47 1662
   339  1.9810e-04  2.4027e-08  4.7901e-08  0:08:34 1661
   340  1.9747e-04  2.3938e-08  4.7714e-08  0:06:51 1660
   341  1.9686e-04  2.3850e-08  4.7530e-08  0:05:29 1659

  iter  continuity  x-velocity  y-velocity     time/iter
   342  1.9624e-04  2.3763e-08  4.7347e-08  0:04:23 1658
   343  1.9565e-04  2.3677e-08  4.7169e-08  0:09:01 1657
   344  1.9506e-04  2.3592e-08  4.6992e-08  0:07:13 1656
   345  1.9447e-04  2.3508e-08  4.6817e-08  0:05:46 1655
   346  1.9387e-04  2.3424e-08  4.6642e-08  0:10:07 1654
   347  1.9328e-04  2.3341e-08  4.6467e-08  0:08:06 1653
   348  1.9269e-04  2.3259e-08  4.6293e-08  0:06:28 1652
   349  1.9210e-04  2.3177e-08  4.6120e-08  0:05:10 1651
   350  1.9151e-04  2.3096e-08  4.5949e-08  0:09:38 1650
   351  1.9092e-04  2.3016e-08  4.5777e-08  0:07:42 1649
   352  1.9033e-04  2.2936e-08  4.5607e-08  0:06:10 1648

  iter  continuity  x-velocity  y-velocity     time/iter
   353  1.8975e-04  2.2856e-08  4.5438e-08  0:04:56 1647
   354  1.8916e-04  2.2777e-08  4.5270e-08  0:03:56 1646
   355  1.8857e-04  2.2698e-08  4.5104e-08  0:08:38 1645
   356  1.8799e-04  2.2619e-08  4.4940e-08  0:06:54 1644
   357  1.8741e-04  2.2541e-08  4.4776e-08  0:05:31 1643
   358  1.8684e-04  2.2463e-08  4.4613e-08  0:04:25 1642
   359  1.8627e-04  2.2386e-08  4.4450e-08  0:09:00 1641
   360  1.8569e-04  2.2309e-08  4.4289e-08  0:07:12 1640
   361  1.8512e-04  2.2233e-08  4.4129e-08  0:05:45 1639
   362  1.8456e-04  2.2157e-08  4.3971e-08  0:04:36 1638
   363  1.8399e-04  2.2082e-08  4.3813e-08  0:09:08 1637

  iter  continuity  x-velocity  y-velocity     time/iter
   364  1.8343e-04  2.2007e-08  4.3656e-08  0:07:18 1636
   365  1.8288e-04  2.1933e-08  4.3500e-08  0:05:50 1635
   366  1.8233e-04  2.1858e-08  4.3346e-08  0:04:40 1634
   367  1.8178e-04  2.1785e-08  4.3194e-08  0:03:44 1633
   368  1.8123e-04  2.1711e-08  4.3042e-08  0:08:25 1632
   369  1.8069e-04  2.1638e-08  4.2891e-08  0:06:44 1631
   370  1.8015e-04  2.1566e-08  4.2742e-08  0:05:23 1630
   371  1.7962e-04  2.1494e-08  4.2593e-08  0:04:18 1629
   372  1.7909e-04  2.1423e-08  4.2445e-08  0:08:52 1628
   373  1.7857e-04  2.1352e-08  4.2298e-08  0:07:05 1627
   374  1.7804e-04  2.1281e-08  4.2152e-08  0:05:40 1626

  iter  continuity  x-velocity  y-velocity     time/iter
   375  1.7752e-04  2.1211e-08  4.2006e-08  0:04:32 1625
   376  1.7701e-04  2.1142e-08  4.1862e-08  0:09:02 1624
   377  1.7649e-04  2.1073e-08  4.1720e-08  0:07:14 1623
   378  1.7598e-04  2.1004e-08  4.1579e-08  0:05:47 1622
   379  1.7547e-04  2.0936e-08  4.1439e-08  0:04:37 1621
   380  1.7497e-04  2.0868e-08  4.1299e-08  0:03:42 1620
   381  1.7447e-04  2.0801e-08  4.1160e-08  0:08:21 1619
   382  1.7397e-04  2.0734e-08  4.1023e-08  0:06:40 1618
   383  1.7347e-04  2.0668e-08  4.0886e-08  0:05:20 1617
   384  1.7298e-04  2.0603e-08  4.0749e-08  0:04:16 1616
   385  1.7249e-04  2.0538e-08  4.0612e-08  0:08:48 1615

  iter  continuity  x-velocity  y-velocity     time/iter
   386  1.7201e-04  2.0474e-08  4.0477e-08  0:07:02 1614
   387  1.7153e-04  2.0410e-08  4.0344e-08  0:05:37 1613
   388  1.7105e-04  2.0347e-08  4.0211e-08  0:04:30 1612
   389  1.7058e-04  2.0283e-08  4.0080e-08  0:08:58 1611
   390  1.7011e-04  2.0220e-08  3.9949e-08  0:07:10 1610
   391  1.6964e-04  2.0158e-08  3.9820e-08  0:05:44 1609
   392  1.6918e-04  2.0095e-08  3.9691e-08  0:09:56 1608
   393  1.6872e-04  2.0033e-08  3.9564e-08  0:07:57 1607
   394  1.6827e-04  1.9972e-08  3.9437e-08  0:06:21 1606
   395  1.6781e-04  1.9911e-08  3.9312e-08  0:05:05 1605
   396  1.6736e-04  1.9850e-08  3.9187e-08  0:04:04 1604

  iter  continuity  x-velocity  y-velocity     time/iter
   397  1.6692e-04  1.9790e-08  3.9063e-08  0:08:35 1603
   398  1.6647e-04  1.9730e-08  3.8940e-08  0:06:52 1602
   399  1.6602e-04  1.9670e-08  3.8817e-08  0:05:29 1601
   400  1.6557e-04  1.9611e-08  3.8694e-08  0:04:23 1600
   401  1.6512e-04  1.9552e-08  3.8573e-08  0:08:50 1599
   402  1.6468e-04  1.9493e-08  3.8452e-08  0:07:04 1598
   403  1.6423e-04  1.9434e-08  3.8333e-08  0:05:39 1597
   404  1.6380e-04  1.9375e-08  3.8216e-08  0:04:31 1596
   405  1.6337e-04  1.9317e-08  3.8100e-08  0:08:56 1595
   406  1.6292e-04  1.9259e-08  3.7984e-08  0:07:08 1594
   407  1.6245e-04  1.9201e-08  3.7863e-08  0:05:42 1593

  iter  continuity  x-velocity  y-velocity     time/iter
   408  1.6196e-04  1.9142e-08  3.7740e-08  0:04:34 1592
   409  1.6148e-04  1.9083e-08  3.7616e-08  0:03:39 1591
   410  1.6101e-04  1.9023e-08  3.7493e-08  0:08:13 1590
   411  1.6054e-04  1.8964e-08  3.7371e-08  0:06:34 1589
   412  1.6008e-04  1.8906e-08  3.7250e-08  0:05:15 1588
   413  1.5963e-04  1.8848e-08  3.7129e-08  0:04:12 1587
   414  1.5917e-04  1.8790e-08  3.7012e-08  0:08:39 1586
   415  1.5872e-04  1.8733e-08  3.6895e-08  0:06:55 1585
   416  1.5828e-04  1.8675e-08  3.6778e-08  0:05:31 1584
   417  1.5783e-04  1.8619e-08  3.6661e-08  0:04:25 1583
   418  1.5739e-04  1.8562e-08  3.6542e-08  0:08:48 1582

  iter  continuity  x-velocity  y-velocity     time/iter
   419  1.5694e-04  1.8507e-08  3.6423e-08  0:07:02 1581
   420  1.5649e-04  1.8451e-08  3.6302e-08  0:05:38 1580
   421  1.5605e-04  1.8395e-08  3.6181e-08  0:04:30 1579
   422  1.5559e-04  1.8339e-08  3.6060e-08  0:03:36 1578
   423  1.5515e-04  1.8283e-08  3.5939e-08  0:08:08 1577
   424  1.5470e-04  1.8227e-08  3.5819e-08  0:06:30 1576
   425  1.5426e-04  1.8172e-08  3.5699e-08  0:05:12 1575
   426  1.5382e-04  1.8116e-08  3.5580e-08  0:04:09 1574
   427  1.5339e-04  1.8061e-08  3.5461e-08  0:08:34 1573
   428  1.5296e-04  1.8006e-08  3.5343e-08  0:06:51 1572
   429  1.5253e-04  1.7951e-08  3.5226e-08  0:05:29 1571

  iter  continuity  x-velocity  y-velocity     time/iter
   430  1.5210e-04  1.7897e-08  3.5112e-08  0:04:23 1570
   431  1.5168e-04  1.7842e-08  3.4997e-08  0:08:44 1569
   432  1.5125e-04  1.7788e-08  3.4882e-08  0:06:59 1568
   433  1.5082e-04  1.7733e-08  3.4767e-08  0:05:35 1567
   434  1.5039e-04  1.7678e-08  3.4653e-08  0:04:28 1566
   435  1.4996e-04  1.7624e-08  3.4540e-08  0:03:34 1565
   436  1.4954e-04  1.7570e-08  3.4429e-08  0:08:04 1564
   437  1.4911e-04  1.7515e-08  3.4318e-08  0:06:27 1563
   438  1.4869e-04  1.7461e-08  3.4208e-08  0:05:09 1562
   439  1.4826e-04  1.7408e-08  3.4098e-08  0:09:19 1561
   440  1.4784e-04  1.7354e-08  3.3988e-08  0:07:27 1560

  iter  continuity  x-velocity  y-velocity     time/iter
   441  1.4741e-04  1.7301e-08  3.3879e-08  0:05:58 1559
   442  1.4699e-04  1.7248e-08  3.3771e-08  0:04:46 1558
   443  1.4657e-04  1.7195e-08  3.3663e-08  0:09:00 1557
   444  1.4615e-04  1.7143e-08  3.3555e-08  0:07:12 1556
   445  1.4573e-04  1.7090e-08  3.3447e-08  0:05:45 1555
   446  1.4531e-04  1.7038e-08  3.3339e-08  0:04:36 1554
   447  1.4490e-04  1.6986e-08  3.3231e-08  0:08:51 1553
   448  1.4449e-04  1.6934e-08  3.3124e-08  0:07:05 1552
   449  1.4408e-04  1.6882e-08  3.3018e-08  0:05:40 1551
   450  1.4367e-04  1.6830e-08  3.2911e-08  0:04:31 1550
   451  1.4327e-04  1.6779e-08  3.2805e-08  0:08:47 1549

  iter  continuity  x-velocity  y-velocity     time/iter
   452  1.4286e-04  1.6727e-08  3.2700e-08  0:07:01 1548
   453  1.4246e-04  1.6676e-08  3.2595e-08  0:05:37 1547
   454  1.4206e-04  1.6625e-08  3.2491e-08  0:04:29 1546
   455  1.4166e-04  1.6574e-08  3.2387e-08  0:03:35 1545
   456  1.4126e-04  1.6523e-08  3.2284e-08  0:08:01 1544
   457  1.4086e-04  1.6472e-08  3.2181e-08  0:06:24 1543
   458  1.4047e-04  1.6422e-08  3.2079e-08  0:05:07 1542
   459  1.4007e-04  1.6372e-08  3.1977e-08  0:04:06 1541
   460  1.3968e-04  1.6322e-08  3.1875e-08  0:08:24 1540
   461  1.3928e-04  1.6272e-08  3.1773e-08  0:06:43 1539
   462  1.3889e-04  1.6222e-08  3.1672e-08  0:05:22 1538

  iter  continuity  x-velocity  y-velocity     time/iter
   463  1.3850e-04  1.6173e-08  3.1572e-08  0:04:18 1537
   464  1.3811e-04  1.6124e-08  3.1471e-08  0:08:33 1536
   465  1.3772e-04  1.6075e-08  3.1372e-08  0:06:50 1535
   466  1.3734e-04  1.6026e-08  3.1272e-08  0:05:28 1534
   467  1.3696e-04  1.5977e-08  3.1174e-08  0:04:22 1533
   468  1.3658e-04  1.5929e-08  3.1076e-08  0:03:30 1532
   469  1.3620e-04  1.5881e-08  3.0978e-08  0:07:54 1531
   470  1.3582e-04  1.5833e-08  3.0881e-08  0:06:19 1530
   471  1.3544e-04  1.5785e-08  3.0784e-08  0:05:03 1529
   472  1.3507e-04  1.5737e-08  3.0687e-08  0:04:02 1528
   473  1.3469e-04  1.5690e-08  3.0590e-08  0:08:19 1527

  iter  continuity  x-velocity  y-velocity     time/iter
   474  1.3432e-04  1.5643e-08  3.0495e-08  0:06:39 1526
   475  1.3395e-04  1.5595e-08  3.0399e-08  0:05:19 1525
   476  1.3358e-04  1.5549e-08  3.0305e-08  0:04:15 1524
   477  1.3321e-04  1.5502e-08  3.0211e-08  0:08:28 1523
   478  1.3284e-04  1.5456e-08  3.0117e-08  0:06:46 1522
   479  1.3248e-04  1.5409e-08  3.0024e-08  0:05:25 1521
   480  1.3211e-04  1.5364e-08  2.9932e-08  0:04:20 1520
   481  1.3175e-04  1.5318e-08  2.9840e-08  0:03:28 1519
   482  1.3139e-04  1.5272e-08  2.9749e-08  0:07:50 1518
   483  1.3104e-04  1.5227e-08  2.9658e-08  0:06:15 1517
   484  1.3068e-04  1.5182e-08  2.9567e-08  0:05:00 1516

  iter  continuity  x-velocity  y-velocity     time/iter
   485  1.3032e-04  1.5137e-08  2.9477e-08  0:09:03 1515
   486  1.2997e-04  1.5093e-08  2.9387e-08  0:07:14 1514
   487  1.2961e-04  1.5048e-08  2.9298e-08  0:05:47 1513
   488  1.2926e-04  1.5004e-08  2.9208e-08  0:04:37 1512
   489  1.2890e-04  1.4960e-08  2.9119e-08  0:08:44 1511
   490  1.2854e-04  1.4917e-08  2.9030e-08  0:06:59 1510
   491  1.2819e-04  1.4873e-08  2.8941e-08  0:05:35 1509
   492  1.2783e-04  1.4830e-08  2.8852e-08  0:04:28 1508
   493  1.2748e-04  1.4787e-08  2.8764e-08  0:08:35 1507
   494  1.2712e-04  1.4745e-08  2.8677e-08  0:06:52 1506
   495  1.2677e-04  1.4702e-08  2.8590e-08  0:05:29 1505

  iter  continuity  x-velocity  y-velocity     time/iter
   496  1.2642e-04  1.4660e-08  2.8504e-08  0:04:23 1504
   497  1.2607e-04  1.4618e-08  2.8417e-08  0:03:31 1503
   498  1.2573e-04  1.4576e-08  2.8332e-08  0:07:49 1502
   499  1.2539e-04  1.4534e-08  2.8246e-08  0:06:15 1501
   500  1.2505e-04  1.4493e-08  2.8160e-08  0:05:00 1500
   501  1.2471e-04  1.4451e-08  2.8074e-08  0:04:00 1499
   502  1.2438e-04  1.4410e-08  2.7989e-08  0:08:11 1498
   503  1.2405e-04  1.4369e-08  2.7905e-08  0:06:33 1497
   504  1.2372e-04  1.4327e-08  2.7821e-08  0:05:14 1496
   505  1.2339e-04  1.4287e-08  2.7737e-08  0:04:11 1495
   506  1.2307e-04  1.4246e-08  2.7654e-08  0:08:19 1494

  iter  continuity  x-velocity  y-velocity     time/iter
   507  1.2274e-04  1.4206e-08  2.7572e-08  0:06:39 1493
   508  1.2242e-04  1.4165e-08  2.7490e-08  0:05:19 1492
   509  1.2209e-04  1.4125e-08  2.7408e-08  0:04:15 1491
   510  1.2177e-04  1.4085e-08  2.7327e-08  0:03:24 1490
   511  1.2144e-04  1.4045e-08  2.7246e-08  0:07:41 1489
   512  1.2112e-04  1.4006e-08  2.7165e-08  0:06:08 1488
   513  1.2079e-04  1.3967e-08  2.7085e-08  0:04:55 1487
   514  1.2047e-04  1.3927e-08  2.7005e-08  0:03:56 1486
   515  1.2015e-04  1.3888e-08  2.6925e-08  0:08:05 1485
   516  1.1983e-04  1.3850e-08  2.6846e-08  0:06:28 1484
   517  1.1951e-04  1.3811e-08  2.6768e-08  0:05:10 1483

  iter  continuity  x-velocity  y-velocity     time/iter
   518  1.1919e-04  1.3773e-08  2.6690e-08  0:04:08 1482
   519  1.1888e-04  1.3735e-08  2.6613e-08  0:08:14 1481
   520  1.1856e-04  1.3698e-08  2.6536e-08  0:06:35 1480
   521  1.1825e-04  1.3661e-08  2.6459e-08  0:05:16 1479
   522  1.1793e-04  1.3623e-08  2.6382e-08  0:04:13 1478
   523  1.1762e-04  1.3586e-08  2.6306e-08  0:03:22 1477
   524  1.1731e-04  1.3549e-08  2.6230e-08  0:07:37 1476
   525  1.1700e-04  1.3513e-08  2.6155e-08  0:06:05 1475
   526  1.1670e-04  1.3476e-08  2.6080e-08  0:04:52 1474
   527  1.1639e-04  1.3439e-08  2.6005e-08  0:03:53 1473
   528  1.1609e-04  1.3403e-08  2.5931e-08  0:08:01 1472

  iter  continuity  x-velocity  y-velocity     time/iter
   529  1.1579e-04  1.3366e-08  2.5857e-08  0:06:24 1471
   530  1.1550e-04  1.3330e-08  2.5784e-08  0:05:07 1470
   531  1.1520e-04  1.3294e-08  2.5711e-08  0:04:06 1469
   532  1.1491e-04  1.3259e-08  2.5638e-08  0:08:10 1468
   533  1.1461e-04  1.3223e-08  2.5565e-08  0:06:32 1467
   534  1.1432e-04  1.3187e-08  2.5493e-08  0:05:13 1466
   535  1.1403e-04  1.3152e-08  2.5421e-08  0:04:10 1465
   536  1.1374e-04  1.3117e-08  2.5350e-08  0:08:13 1464
   537  1.1345e-04  1.3082e-08  2.5278e-08  0:06:34 1463
   538  1.1316e-04  1.3047e-08  2.5207e-08  0:05:15 1462
   539  1.1287e-04  1.3012e-08  2.5136e-08  0:04:12 1461

  iter  continuity  x-velocity  y-velocity     time/iter
   540  1.1259e-04  1.2978e-08  2.5065e-08  0:08:13 1460
   541  1.1230e-04  1.2943e-08  2.4994e-08  0:06:34 1459
   542  1.1202e-04  1.2909e-08  2.4924e-08  0:05:15 1458
   543  1.1173e-04  1.2875e-08  2.4854e-08  0:04:12 1457
   544  1.1145e-04  1.2841e-08  2.4785e-08  0:08:13 1456
   545  1.1116e-04  1.2807e-08  2.4715e-08  0:06:34 1455
   546  1.1088e-04  1.2773e-08  2.4646e-08  0:05:15 1454
   547  1.1060e-04  1.2740e-08  2.4577e-08  0:04:12 1453
   548  1.1032e-04  1.2707e-08  2.4509e-08  0:08:12 1452
   549  1.1003e-04  1.2673e-08  2.4441e-08  0:06:33 1451
   550  1.0975e-04  1.2640e-08  2.4374e-08  0:05:14 1450

  iter  continuity  x-velocity  y-velocity     time/iter
   551  1.0947e-04  1.2607e-08  2.4306e-08  0:04:11 1449
   552  1.0919e-04  1.2574e-08  2.4239e-08  0:08:10 1448
   553  1.0892e-04  1.2541e-08  2.4172e-08  0:06:32 1447
   554  1.0864e-04  1.2509e-08  2.4105e-08  0:05:13 1446
   555  1.0836e-04  1.2476e-08  2.4038e-08  0:04:11 1445
   556  1.0809e-04  1.2444e-08  2.3972e-08  0:03:20 1444
   557  1.0782e-04  1.2412e-08  2.3906e-08  0:07:29 1443
   558  1.0754e-04  1.2380e-08  2.3841e-08  0:05:59 1442
   559  1.0727e-04  1.2348e-08  2.3775e-08  0:04:47 1441
   560  1.0700e-04  1.2316e-08  2.3711e-08  0:03:49 1440
   561  1.0673e-04  1.2284e-08  2.3646e-08  0:07:51 1439

  iter  continuity  x-velocity  y-velocity     time/iter
   562  1.0647e-04  1.2253e-08  2.3582e-08  0:06:17 1438
   563  1.0620e-04  1.2222e-08  2.3519e-08  0:05:01 1437
   564  1.0593e-04  1.2190e-08  2.3455e-08  0:04:01 1436
   565  1.0567e-04  1.2159e-08  2.3392e-08  0:07:59 1435
   566  1.0541e-04  1.2128e-08  2.3329e-08  0:06:23 1434
   567  1.0514e-04  1.2098e-08  2.3266e-08  0:05:06 1433
   568  1.0488e-04  1.2067e-08  2.3203e-08  0:04:05 1432
   569  1.0462e-04  1.2036e-08  2.3141e-08  0:08:02 1431
   570  1.0437e-04  1.2006e-08  2.3078e-08  0:06:25 1430
   571  1.0411e-04  1.1976e-08  2.3017e-08  0:05:08 1429
   572  1.0385e-04  1.1946e-08  2.2955e-08  0:04:06 1428

  iter  continuity  x-velocity  y-velocity     time/iter
   573  1.0360e-04  1.1916e-08  2.2893e-08  0:03:17 1427
   574  1.0334e-04  1.1886e-08  2.2832e-08  0:07:23 1426
   575  1.0309e-04  1.1856e-08  2.2772e-08  0:05:54 1425
   576  1.0283e-04  1.1826e-08  2.2712e-08  0:04:43 1424
   577  1.0258e-04  1.1797e-08  2.2651e-08  0:03:46 1423
   578  1.0232e-04  1.1767e-08  2.2591e-08  0:07:45 1422
   579  1.0207e-04  1.1737e-08  2.2531e-08  0:06:12 1421
   580  1.0182e-04  1.1708e-08  2.2471e-08  0:04:57 1420
   581  1.0156e-04  1.1678e-08  2.2411e-08  0:08:41 1419
   582  1.0131e-04  1.1649e-08  2.2352e-08  0:06:57 1418
   583  1.0106e-04  1.1620e-08  2.2292e-08  0:05:33 1417

  iter  continuity  x-velocity  y-velocity     time/iter
   584  1.0081e-04  1.1591e-08  2.2234e-08  0:04:26 1416
   585  1.0056e-04  1.1562e-08  2.2175e-08  0:08:16 1415
   586  1.0031e-04  1.1534e-08  2.2117e-08  0:06:37 1414
   587  1.0007e-04  1.1506e-08  2.2059e-08  0:05:17 1413
   588  9.9829e-05  1.1477e-08  2.2002e-08  0:04:13 1412
   589  9.9588e-05  1.1449e-08  2.1946e-08  0:03:23 1411
   590  9.9349e-05  1.1421e-08  2.1890e-08  0:07:24 1410
   591  9.9112e-05  1.1394e-08  2.1835e-08  0:05:55 1409
   592  9.8876e-05  1.1366e-08  2.1779e-08  0:04:44 1408
   593  9.8642e-05  1.1338e-08  2.1725e-08  0:03:47 1407
   594  9.8410e-05  1.1311e-08  2.1671e-08  0:07:43 1406

  iter  continuity  x-velocity  y-velocity     time/iter
   595  9.8180e-05  1.1284e-08  2.1617e-08  0:06:10 1405
   596  9.7952e-05  1.1257e-08  2.1563e-08  0:04:56 1404
   597  9.7726e-05  1.1230e-08  2.1510e-08  0:03:56 1403
   598  9.7502e-05  1.1203e-08  2.1457e-08  0:03:09 1402
   599  9.7280e-05  1.1177e-08  2.1404e-08  0:07:11 1401
   600  9.7043e-05  1.1150e-08  2.1350e-08  0:05:45 1400
   601  9.6800e-05  1.1124e-08  2.1294e-08  0:04:36 1399
   602  9.6558e-05  1.1096e-08  2.1238e-08  0:03:40 1398
   603  9.6318e-05  1.1069e-08  2.1183e-08  0:07:36 1397
   604  9.6080e-05  1.1041e-08  2.1128e-08  0:06:04 1396
   605  9.5849e-05  1.1014e-08  2.1074e-08  0:04:51 1395

  iter  continuity  x-velocity  y-velocity     time/iter
   606  9.5624e-05  1.0986e-08  2.1021e-08  0:03:53 1394
   607  9.5406e-05  1.0959e-08  2.0970e-08  0:07:45 1393
   608  9.5188e-05  1.0932e-08  2.0920e-08  0:06:11 1392
   609  9.4970e-05  1.0905e-08  2.0870e-08  0:04:57 1391
   610  9.4751e-05  1.0878e-08  2.0820e-08  0:03:57 1390
   611  9.4532e-05  1.0852e-08  2.0771e-08  0:03:10 1389
   612  9.4312e-05  1.0826e-08  2.0722e-08  0:07:09 1388
   613  9.4093e-05  1.0800e-08  2.0672e-08  0:05:43 1387
   614  9.3874e-05  1.0774e-08  2.0623e-08  0:04:34 1386
   615  9.3655e-05  1.0749e-08  2.0574e-08  0:03:39 1385
   616  9.3437e-05  1.0723e-08  2.0525e-08  0:07:32 1384

  iter  continuity  x-velocity  y-velocity     time/iter
   617  9.3221e-05  1.0698e-08  2.0476e-08  0:06:01 1383
   618  9.3005e-05  1.0673e-08  2.0427e-08  0:04:49 1382
   619  9.2790e-05  1.0648e-08  2.0379e-08  0:03:51 1381
   620  9.2577e-05  1.0623e-08  2.0331e-08  0:07:41 1380
   621  9.2364e-05  1.0598e-08  2.0282e-08  0:06:08 1379
   622  9.2153e-05  1.0574e-08  2.0234e-08  0:04:54 1378
   623  9.1943e-05  1.0549e-08  2.0186e-08  0:03:55 1377
   624  9.1735e-05  1.0525e-08  2.0139e-08  0:07:43 1376
   625  9.1525e-05  1.0500e-08  2.0090e-08  0:06:10 1375
   626  9.1315e-05  1.0476e-08  2.0040e-08  0:04:56 1374
   627  9.1105e-05  1.0451e-08  1.9991e-08  0:08:31 1373

  iter  continuity  x-velocity  y-velocity     time/iter
   628  9.0896e-05  1.0427e-08  1.9942e-08  0:06:49 1372
   629  9.0687e-05  1.0403e-08  1.9894e-08  0:05:27 1371
   630  9.0480e-05  1.0378e-08  1.9846e-08  0:04:21 1370
   631  9.0273e-05  1.0354e-08  1.9800e-08  0:03:29 1369
   632  9.0068e-05  1.0330e-08  1.9753e-08  0:07:21 1368
   633  8.9863e-05  1.0306e-08  1.9707e-08  0:05:52 1367
   634  8.9656e-05  1.0283e-08  1.9660e-08  0:04:42 1366
   635  8.9449e-05  1.0259e-08  1.9613e-08  0:03:45 1365
   636  8.9242e-05  1.0235e-08  1.9565e-08  0:07:33 1364
   637  8.9036e-05  1.0211e-08  1.9519e-08  0:06:02 1363
   638  8.8832e-05  1.0188e-08  1.9472e-08  0:04:49 1362

  iter  continuity  x-velocity  y-velocity     time/iter
   639  8.8630e-05  1.0164e-08  1.9425e-08  0:03:51 1361
   640  8.8428e-05  1.0141e-08  1.9379e-08  0:07:37 1360
   641  8.8227e-05  1.0118e-08  1.9333e-08  0:06:05 1359
   642  8.8026e-05  1.0095e-08  1.9286e-08  0:04:52 1358
   643  8.7826e-05  1.0072e-08  1.9240e-08  0:03:53 1357
   644  8.7626e-05  1.0050e-08  1.9194e-08  0:07:38 1356
   645  8.7426e-05  1.0027e-08  1.9148e-08  0:06:06 1355
   646  8.7226e-05  1.0005e-08  1.9102e-08  0:04:53 1354
   647  8.7025e-05  9.9826e-09  1.9055e-08  0:03:54 1353
   648  8.6825e-05  9.9604e-09  1.9009e-08  0:07:37 1352
   649  8.6627e-05  9.9384e-09  1.8962e-08  0:06:06 1351

  iter  continuity  x-velocity  y-velocity     time/iter
   650  8.6429e-05  9.9165e-09  1.8916e-08  0:09:22 1350
   651  8.6232e-05  9.8947e-09  1.8870e-08  0:07:29 1349
   652  8.6037e-05  9.8731e-09  1.8825e-08  0:10:29 1348
   653  8.5845e-05  9.8517e-09  1.8779e-08  0:08:23 1347
   654  8.5652e-05  9.8305e-09  1.8734e-08  0:11:11 1346
   655  8.5460e-05  9.8094e-09  1.8690e-08  0:08:56 1345
   656  8.5267e-05  9.7882e-09  1.8645e-08  0:07:09 1344
   657  8.5072e-05  9.7669e-09  1.8600e-08  0:10:11 1343
   658  8.4877e-05  9.7455e-09  1.8555e-08  0:08:09 1342
   659  8.4683e-05  9.7239e-09  1.8509e-08  0:10:59 1341
   660  8.4489e-05  9.7022e-09  1.8463e-08  0:08:47 1340

  iter  continuity  x-velocity  y-velocity     time/iter
   661  8.4296e-05  9.6804e-09  1.8418e-08  0:11:29 1339
   662  8.4105e-05  9.6585e-09  1.8372e-08  0:09:11 1338
   663  8.3914e-05  9.6366e-09  1.8328e-08  0:11:48 1337
   664  8.3725e-05  9.6149e-09  1.8284e-08  0:09:26 1336
   665  8.3535e-05  9.5933e-09  1.8241e-08  0:11:59 1335
   666  8.3348e-05  9.5719e-09  1.8197e-08  0:09:35 1334
   667  8.3161e-05  9.5507e-09  1.8154e-08  0:07:40 1333
   668  8.2976e-05  9.5294e-09  1.8111e-08  0:10:34 1332
   669  8.2790e-05  9.5082e-09  1.8068e-08  0:08:27 1331
   670  8.2606e-05  9.4870e-09  1.8025e-08  0:11:11 1330
   671  8.2424e-05  9.4660e-09  1.7983e-08  0:08:56 1329

  iter  continuity  x-velocity  y-velocity     time/iter
   672  8.2242e-05  9.4451e-09  1.7940e-08  0:11:34 1328
   673  8.2060e-05  9.4242e-09  1.7898e-08  0:09:15 1327
   674  8.1878e-05  9.4035e-09  1.7856e-08  0:11:49 1326
   675  8.1695e-05  9.3828e-09  1.7814e-08  0:09:27 1325
   676  8.1513e-05  9.3622e-09  1.7773e-08  0:11:58 1324
   677  8.1330e-05  9.3416e-09  1.7732e-08  0:09:34 1323
   678  8.1146e-05  9.3211e-09  1.7691e-08  0:12:03 1322
   679  8.0961e-05  9.3006e-09  1.7650e-08  0:09:38 1321
   680  8.0775e-05  9.2801e-09  1.7610e-08  0:12:06 1320
   681  8.0590e-05  9.2597e-09  1.7570e-08  0:09:40 1319
   682  8.0405e-05  9.2392e-09  1.7529e-08  0:07:44 1318

  iter  continuity  x-velocity  y-velocity     time/iter
   683  8.0220e-05  9.2188e-09  1.7489e-08  0:10:34 1317
   684  8.0035e-05  9.1984e-09  1.7448e-08  0:08:27 1316
   685  7.9849e-05  9.1780e-09  1.7408e-08  0:11:08 1315
   686  7.9662e-05  9.1577e-09  1.7367e-08  0:08:54 1314
   687  7.9473e-05  9.1374e-09  1.7326e-08  0:07:07 1313
   688  7.9284e-05  9.1170e-09  1.7285e-08  0:05:41 1312
   689  7.9094e-05  9.0966e-09  1.7243e-08  0:08:55 1311
   690  7.8903e-05  9.0761e-09  1.7202e-08  0:07:08 1310
   691  7.8712e-05  9.0556e-09  1.7161e-08  0:05:42 1309
   692  7.8523e-05  9.0351e-09  1.7120e-08  0:04:33 1308
   693  7.8334e-05  9.0146e-09  1.7080e-08  0:08:00 1307

  iter  continuity  x-velocity  y-velocity     time/iter
   694  7.8147e-05  8.9941e-09  1.7039e-08  0:06:24 1306
   695  7.7962e-05  8.9735e-09  1.6999e-08  0:05:07 1305
   696  7.7777e-05  8.9530e-09  1.6959e-08  0:04:05 1304
   697  7.7595e-05  8.9326e-09  1.6920e-08  0:03:16 1303
   698  7.7414e-05  8.9123e-09  1.6881e-08  0:06:57 1302
   699  7.7234e-05  8.8921e-09  1.6842e-08  0:05:33 1301
   700  7.7061e-05  8.8720e-09  1.6805e-08  0:04:27 1300
   701  7.6894e-05  8.8522e-09  1.6768e-08  0:03:33 1299
   702  7.6732e-05  8.8328e-09  1.6733e-08  0:07:10 1298
   703  7.6575e-05  8.8138e-09  1.6698e-08  0:05:44 1297
   704  7.6422e-05  8.7952e-09  1.6664e-08  0:04:35 1296

  iter  continuity  x-velocity  y-velocity     time/iter
   705  7.6274e-05  8.7769e-09  1.6631e-08  0:03:40 1295
   706  7.6129e-05  8.7589e-09  1.6598e-08  0:07:14 1294
   707  7.5988e-05  8.7411e-09  1.6567e-08  0:05:47 1293
   708  7.5852e-05  8.7238e-09  1.6536e-08  0:04:38 1292
   709  7.5720e-05  8.7068e-09  1.6506e-08  0:03:42 1291
   710  7.5592e-05  8.6901e-09  1.6477e-08  0:07:15 1290
   711  7.5466e-05  8.6737e-09  1.6449e-08  0:05:48 1289
   712  7.5340e-05  8.6576e-09  1.6422e-08  0:04:38 1288
   713  7.5214e-05  8.6416e-09  1.6394e-08  0:03:42 1287
   714  7.5085e-05  8.6257e-09  1.6366e-08  0:07:15 1286
   715  7.4949e-05  8.6098e-09  1.6337e-08  0:05:48 1285

  iter  continuity  x-velocity  y-velocity     time/iter
   716  7.4806e-05  8.5938e-09  1.6307e-08  0:04:38 1284
   717  7.4652e-05  8.5776e-09  1.6275e-08  0:03:42 1283
   718  7.4486e-05  8.5609e-09  1.6242e-08  0:02:58 1282
   719  7.4308e-05  8.5436e-09  1.6206e-08  0:06:38 1281
   720  7.4120e-05  8.5258e-09  1.6168e-08  0:05:18 1280
   721  7.3923e-05  8.5075e-09  1.6128e-08  0:04:14 1279
   722  7.3721e-05  8.4885e-09  1.6087e-08  0:07:39 1278
   723  7.3516e-05  8.4688e-09  1.6045e-08  0:06:07 1277
   724  7.3309e-05  8.4486e-09  1.6001e-08  0:04:53 1276
   725  7.3103e-05  8.4281e-09  1.5957e-08  0:03:54 1275
   726  7.2899e-05  8.4073e-09  1.5914e-08  0:07:22 1274

  iter  continuity  x-velocity  y-velocity     time/iter
   727  7.2697e-05  8.3863e-09  1.5870e-08  0:05:53 1273
   728  7.2497e-05  8.3652e-09  1.5827e-08  0:04:43 1272
   729  7.2302e-05  8.3439e-09  1.5784e-08  0:03:46 1271
   730  7.2110e-05  8.3226e-09  1.5742e-08  0:07:15 1270
   731  7.1922e-05  8.3014e-09  1.5701e-08  0:05:47 1269
   732  7.1736e-05  8.2804e-09  1.5660e-08  0:04:38 1268
   733  7.1553e-05  8.2595e-09  1.5619e-08  0:03:42 1267
   734  7.1373e-05  8.2389e-09  1.5579e-08  0:07:11 1266
   735  7.1199e-05  8.2184e-09  1.5540e-08  0:05:44 1265
   736  7.1028e-05  8.1982e-09  1.5501e-08  0:04:35 1264
   737  7.0861e-05  8.1783e-09  1.5463e-08  0:03:40 1263

  iter  continuity  x-velocity  y-velocity     time/iter
   738  7.0698e-05  8.1586e-09  1.5425e-08  0:02:56 1262
   739  7.0538e-05  8.1393e-09  1.5388e-08  0:06:33 1261
   740  7.0379e-05  8.1201e-09  1.5351e-08  0:05:14 1260
   741  7.0222e-05  8.1012e-09  1.5315e-08  0:04:11 1259
   742  7.0065e-05  8.0825e-09  1.5280e-08  0:03:21 1258
   743  6.9910e-05  8.0641e-09  1.5246e-08  0:06:52 1257
   744  6.9757e-05  8.0460e-09  1.5212e-08  0:05:29 1256
   745  6.9604e-05  8.0282e-09  1.5178e-08  0:04:23 1255
   746  6.9454e-05  8.0108e-09  1.5145e-08  0:03:30 1254
   747  6.9305e-05  7.9937e-09  1.5112e-08  0:06:59 1253
   748  6.9157e-05  7.9767e-09  1.5078e-08  0:05:35 1252

  iter  continuity  x-velocity  y-velocity     time/iter
   749  6.9010e-05  7.9597e-09  1.5045e-08  0:04:28 1251
   750  6.8864e-05  7.9428e-09  1.5011e-08  0:03:34 1250
   751  6.8719e-05  7.9258e-09  1.4977e-08  0:07:01 1249
   752  6.8574e-05  7.9089e-09  1.4943e-08  0:05:36 1248
   753  6.8430e-05  7.8919e-09  1.4910e-08  0:04:29 1247
   754  6.8287e-05  7.8750e-09  1.4876e-08  0:03:35 1246
   755  6.8145e-05  7.8581e-09  1.4843e-08  0:02:52 1245
   756  6.8003e-05  7.8413e-09  1.4810e-08  0:06:26 1244
   757  6.7862e-05  7.8246e-09  1.4777e-08  0:05:09 1243
   758  6.7721e-05  7.8081e-09  1.4744e-08  0:04:07 1242
   759  6.7582e-05  7.7916e-09  1.4712e-08  0:03:17 1241

  iter  continuity  x-velocity  y-velocity     time/iter
   760  6.7443e-05  7.7752e-09  1.4679e-08  0:06:46 1240
   761  6.7304e-05  7.7589e-09  1.4647e-08  0:05:24 1239
   762  6.7166e-05  7.7427e-09  1.4615e-08  0:04:19 1238
   763  6.7029e-05  7.7266e-09  1.4584e-08  0:03:27 1237
   764  6.6892e-05  7.7106e-09  1.4552e-08  0:06:53 1236
   765  6.6755e-05  7.6946e-09  1.4521e-08  0:05:30 1235
   766  6.6619e-05  7.6788e-09  1.4490e-08  0:04:24 1234
   767  6.6483e-05  7.6630e-09  1.4459e-08  0:07:37 1233
   768  6.6349e-05  7.6474e-09  1.4428e-08  0:06:06 1232
   769  6.6214e-05  7.6318e-09  1.4397e-08  0:04:52 1231
   770  6.6080e-05  7.6163e-09  1.4366e-08  0:03:54 1230

  iter  continuity  x-velocity  y-velocity     time/iter
   771  6.5947e-05  7.6008e-09  1.4335e-08  0:07:13 1229
   772  6.5815e-05  7.5854e-09  1.4304e-08  0:05:46 1228
   773  6.5684e-05  7.5700e-09  1.4274e-08  0:04:36 1227
   774  6.5554e-05  7.5546e-09  1.4243e-08  0:03:41 1226
   775  6.5424e-05  7.5394e-09  1.4212e-08  0:02:57 1225
   776  6.5295e-05  7.5242e-09  1.4182e-08  0:06:26 1224
   777  6.5167e-05  7.5091e-09  1.4151e-08  0:05:09 1223
   778  6.5039e-05  7.4940e-09  1.4121e-08  0:04:07 1222
   779  6.4912e-05  7.4790e-09  1.4092e-08  0:03:17 1221
   780  6.4784e-05  7.4640e-09  1.4062e-08  0:06:42 1220
   781  6.4652e-05  7.4489e-09  1.4031e-08  0:05:21 1219

  iter  continuity  x-velocity  y-velocity     time/iter
   782  6.4518e-05  7.4337e-09  1.4000e-08  0:04:17 1218
   783  6.4383e-05  7.4185e-09  1.3970e-08  0:03:25 1217
   784  6.4248e-05  7.4033e-09  1.3940e-08  0:06:47 1216
   785  6.4114e-05  7.3881e-09  1.3910e-08  0:05:25 1215
   786  6.3982e-05  7.3730e-09  1.3880e-08  0:04:20 1214
   787  6.3851e-05  7.3580e-09  1.3851e-08  0:03:28 1213
   788  6.3720e-05  7.3431e-09  1.3822e-08  0:06:49 1212
   789  6.3591e-05  7.3282e-09  1.3793e-08  0:05:27 1211
   790  6.3463e-05  7.3134e-09  1.3765e-08  0:04:21 1210
   791  6.3336e-05  7.2987e-09  1.3736e-08  0:03:29 1209
   792  6.3210e-05  7.2841e-09  1.3708e-08  0:02:47 1208

  iter  continuity  x-velocity  y-velocity     time/iter
   793  6.3085e-05  7.2695e-09  1.3680e-08  0:06:15 1207
   794  6.2961e-05  7.2551e-09  1.3652e-08  0:05:00 1206
   795  6.2838e-05  7.2406e-09  1.3624e-08  0:03:59 1205
   796  6.2715e-05  7.2262e-09  1.3596e-08  0:03:11 1204
   797  6.2593e-05  7.2118e-09  1.3568e-08  0:06:34 1203
   798  6.2471e-05  7.1975e-09  1.3540e-08  0:05:15 1202
   799  6.2351e-05  7.1833e-09  1.3513e-08  0:04:11 1201
   800  6.2232e-05  7.1692e-09  1.3485e-08  0:03:21 1200
   801  6.2112e-05  7.1550e-09  1.3458e-08  0:06:40 1199
   802  6.1993e-05  7.1409e-09  1.3431e-08  0:05:20 1198
   803  6.1875e-05  7.1268e-09  1.3404e-08  0:04:16 1197

  iter  continuity  x-velocity  y-velocity     time/iter
   804  6.1758e-05  7.1129e-09  1.3377e-08  0:03:25 1196
   805  6.1641e-05  7.0990e-09  1.3350e-08  0:06:42 1195
   806  6.1524e-05  7.0851e-09  1.3323e-08  0:05:22 1194
   807  6.1408e-05  7.0712e-09  1.3295e-08  0:04:17 1193
   808  6.1291e-05  7.0572e-09  1.3268e-08  0:03:26 1192
   809  6.1175e-05  7.0433e-09  1.3241e-08  0:02:44 1191
   810  6.1058e-05  7.0293e-09  1.3214e-08  0:06:09 1190
   811  6.0942e-05  7.0153e-09  1.3187e-08  0:04:55 1189
   812  6.0827e-05  7.0012e-09  1.3159e-08  0:03:56 1188
   813  6.0711e-05  6.9872e-09  1.3132e-08  0:07:06 1187
   814  6.0595e-05  6.9731e-09  1.3105e-08  0:05:41 1186

  iter  continuity  x-velocity  y-velocity     time/iter
   815  6.0486e-05  6.9590e-09  1.3080e-08  0:04:32 1185
   816  6.0380e-05  6.9448e-09  1.3054e-08  0:03:38 1184
   817  6.0275e-05  6.9306e-09  1.3029e-08  0:06:51 1183
   818  6.0169e-05  6.9164e-09  1.3003e-08  0:05:28 1182
   819  6.0061e-05  6.9021e-09  1.2978e-08  0:04:22 1181
   820  5.9952e-05  6.8879e-09  1.2951e-08  0:03:30 1180
   821  5.9842e-05  6.8737e-09  1.2925e-08  0:06:43 1179
   822  5.9730e-05  6.8594e-09  1.2898e-08  0:05:22 1178
   823  5.9617e-05  6.8452e-09  1.2870e-08  0:04:18 1177
   824  5.9503e-05  6.8308e-09  1.2842e-08  0:03:26 1176
   825  5.9389e-05  6.8165e-09  1.2815e-08  0:06:40 1175

  iter  continuity  x-velocity  y-velocity     time/iter
   826  5.9275e-05  6.8024e-09  1.2788e-08  0:05:19 1174
   827  5.9160e-05  6.7883e-09  1.2762e-08  0:04:15 1173
   828  5.9045e-05  6.7742e-09  1.2736e-08  0:03:24 1172
   829  5.8929e-05  6.7602e-09  1.2710e-08  0:02:43 1171
   830  5.8813e-05  6.7462e-09  1.2684e-08  0:06:04 1170
   831  5.8700e-05  6.7323e-09  1.2657e-08  0:04:51 1169
   832  5.8585e-05  6.7182e-09  1.2631e-08  0:03:53 1168
   833  5.8469e-05  6.7041e-09  1.2604e-08  0:03:06 1167
   834  5.8351e-05  6.6898e-09  1.2576e-08  0:06:22 1166
   835  5.8231e-05  6.6755e-09  1.2549e-08  0:05:05 1165
   836  5.8112e-05  6.6610e-09  1.2522e-08  0:04:04 1164

  iter  continuity  x-velocity  y-velocity     time/iter
   837  5.7994e-05  6.6463e-09  1.2495e-08  0:03:15 1163
   838  5.7877e-05  6.6316e-09  1.2469e-08  0:06:28 1162
   839  5.7763e-05  6.6171e-09  1.2443e-08  0:05:10 1161
   840  5.7639e-05  6.6025e-09  1.2415e-08  0:04:08 1160
   841  5.7511e-05  6.5875e-09  1.2386e-08  0:03:18 1159
   842  5.7384e-05  6.5723e-09  1.2356e-08  0:02:39 1158
   843  5.7260e-05  6.5569e-09  1.2328e-08  0:05:58 1157
   844  5.7137e-05  6.5417e-09  1.2299e-08  0:04:46 1156
   845  5.7016e-05  6.5264e-09  1.2271e-08  0:03:49 1155
   846  5.6894e-05  6.5117e-09  1.2243e-08  0:03:03 1154
   847  5.6773e-05  6.4971e-09  1.2215e-08  0:06:17 1153

  iter  continuity  x-velocity  y-velocity     time/iter
   848  5.6653e-05  6.4825e-09  1.2186e-08  0:05:01 1152
   849  5.6531e-05  6.4677e-09  1.2158e-08  0:04:01 1151
   850  5.6408e-05  6.4528e-09  1.2129e-08  0:03:12 1150
   851  5.6285e-05  6.4378e-09  1.2100e-08  0:06:24 1149
   852  5.6156e-05  6.4225e-09  1.2070e-08  0:05:07 1148
   853  5.6023e-05  6.4068e-09  1.2040e-08  0:04:05 1147
   854  5.5899e-05  6.3907e-09  1.2010e-08  0:03:16 1146
   855  5.5777e-05  6.3744e-09  1.1980e-08  0:02:37 1145
   856  5.5654e-05  6.3579e-09  1.1950e-08  0:05:54 1144
   857  5.5529e-05  6.3417e-09  1.1921e-08  0:04:43 1143
   858  5.5403e-05  6.3259e-09  1.1892e-08  0:03:46 1142

  iter  continuity  x-velocity  y-velocity     time/iter
   859  5.5277e-05  6.3104e-09  1.1863e-08  0:06:49 1141
   860  5.5153e-05  6.2949e-09  1.1834e-08  0:05:27 1140
   861  5.5028e-05  6.2796e-09  1.1804e-08  0:04:21 1139
   862  5.4901e-05  6.2644e-09  1.1774e-08  0:03:29 1138
   863  5.4775e-05  6.2492e-09  1.1745e-08  0:06:34 1137
   864  5.4648e-05  6.2342e-09  1.1716e-08  0:05:15 1136
   865  5.4522e-05  6.2191e-09  1.1688e-08  0:04:12 1135
   866  5.4396e-05  6.2040e-09  1.1659e-08  0:03:21 1134
   867  5.4272e-05  6.1890e-09  1.1631e-08  0:06:28 1133
   868  5.4149e-05  6.1742e-09  1.1602e-08  0:05:10 1132
   869  5.4024e-05  6.1594e-09  1.1573e-08  0:04:08 1131

  iter  continuity  x-velocity  y-velocity     time/iter
   870  5.3896e-05  6.1444e-09  1.1544e-08  0:03:18 1130
   871  5.3768e-05  6.1291e-09  1.1513e-08  0:02:38 1129
   872  5.3638e-05  6.1135e-09  1.1483e-08  0:05:52 1128
   873  5.3508e-05  6.0978e-09  1.1452e-08  0:04:41 1127
   874  5.3379e-05  6.0820e-09  1.1421e-08  0:03:45 1126
   875  5.3252e-05  6.0661e-09  1.1390e-08  0:03:00 1125
   876  5.3126e-05  6.0500e-09  1.1359e-08  0:06:08 1124
   877  5.3000e-05  6.0339e-09  1.1329e-08  0:04:55 1123
   878  5.2876e-05  6.0178e-09  1.1298e-08  0:03:55 1122
   879  5.2752e-05  6.0020e-09  1.1267e-08  0:03:08 1121
   880  5.2629e-05  5.9864e-09  1.1237e-08  0:06:14 1120

  iter  continuity  x-velocity  y-velocity     time/iter
   881  5.2507e-05  5.9708e-09  1.1208e-08  0:04:59 1119
   882  5.2385e-05  5.9554e-09  1.1180e-08  0:03:59 1118
   883  5.2264e-05  5.9404e-09  1.1153e-08  0:03:11 1117
   884  5.2136e-05  5.9256e-09  1.1126e-08  0:02:33 1116
   885  5.2006e-05  5.9108e-09  1.1097e-08  0:05:45 1115
   886  5.1878e-05  5.8958e-09  1.1068e-08  0:04:36 1114
   887  5.1749e-05  5.8808e-09  1.1038e-08  0:03:40 1113
   888  5.1626e-05  5.8658e-09  1.1007e-08  0:02:56 1112
   889  5.1508e-05  5.8506e-09  1.0977e-08  0:06:03 1111
   890  5.1391e-05  5.8353e-09  1.0946e-08  0:04:50 1110
   891  5.1274e-05  5.8200e-09  1.0917e-08  0:03:52 1109

  iter  continuity  x-velocity  y-velocity     time/iter
   892  5.1157e-05  5.8049e-09  1.0889e-08  0:03:05 1108
   893  5.1039e-05  5.7900e-09  1.0861e-08  0:06:10 1107
   894  5.0921e-05  5.7754e-09  1.0834e-08  0:04:55 1106
   895  5.0803e-05  5.7612e-09  1.0808e-08  0:03:56 1105
   896  5.0686e-05  5.7471e-09  1.0781e-08  0:03:09 1104
   897  5.0569e-05  5.7333e-09  1.0755e-08  0:06:11 1103
   898  5.0455e-05  5.7197e-09  1.0729e-08  0:04:57 1102
   899  5.0341e-05  5.7063e-09  1.0703e-08  0:03:57 1101
   900  5.0228e-05  5.6929e-09  1.0678e-08  0:03:10 1100
   901  5.0116e-05  5.6795e-09  1.0653e-08  0:02:32 1099
   902  5.0004e-05  5.6662e-09  1.0628e-08  0:05:41 1098

  iter  continuity  x-velocity  y-velocity     time/iter
   903  4.9893e-05  5.6530e-09  1.0604e-08  0:04:32 1097
   904  4.9783e-05  5.6398e-09  1.0579e-08  0:03:38 1096
   905  4.9672e-05  5.6268e-09  1.0554e-08  0:06:33 1095
   906  4.9559e-05  5.6137e-09  1.0529e-08  0:05:14 1094
   907  4.9446e-05  5.6007e-09  1.0504e-08  0:04:11 1093
   908  4.9333e-05  5.5878e-09  1.0478e-08  0:03:21 1092
   909  4.9220e-05  5.5748e-09  1.0453e-08  0:06:19 1091
   910  4.9108e-05  5.5618e-09  1.0427e-08  0:05:03 1090
   911  4.8997e-05  5.5489e-09  1.0402e-08  0:04:02 1089
   912  4.8887e-05  5.5360e-09  1.0378e-08  0:03:13 1088
   913  4.8777e-05  5.5231e-09  1.0353e-08  0:06:12 1087

  iter  continuity  x-velocity  y-velocity     time/iter
   914  4.8668e-05  5.5104e-09  1.0329e-08  0:04:57 1086
   915  4.8560e-05  5.4977e-09  1.0304e-08  0:03:58 1085
   916  4.8452e-05  5.4851e-09  1.0281e-08  0:03:10 1084
   917  4.8345e-05  5.4725e-09  1.0257e-08  0:02:32 1083
   918  4.8239e-05  5.4601e-09  1.0233e-08  0:05:38 1082
   919  4.8134e-05  5.4477e-09  1.0210e-08  0:04:30 1081
   920  4.8029e-05  5.4355e-09  1.0187e-08  0:03:36 1080
   921  4.7924e-05  5.4234e-09  1.0164e-08  0:02:52 1079
   922  4.7821e-05  5.4114e-09  1.0142e-08  0:05:53 1078
   923  4.7719e-05  5.3996e-09  1.0119e-08  0:04:42 1077
   924  4.7617e-05  5.3878e-09  1.0097e-08  0:03:46 1076

  iter  continuity  x-velocity  y-velocity     time/iter
   925  4.7517e-05  5.3761e-09  1.0075e-08  0:03:00 1075
   926  4.7417e-05  5.3645e-09  1.0053e-08  0:05:59 1074
   927  4.7317e-05  5.3529e-09  1.0031e-08  0:04:47 1073
   928  4.7219e-05  5.3415e-09  1.0009e-08  0:03:49 1072
   929  4.7120e-05  5.3301e-09  9.9877e-09  0:03:03 1071
   930  4.7023e-05  5.3188e-09  9.9663e-09  0:02:27 1070
   931  4.6925e-05  5.3075e-09  9.9450e-09  0:05:31 1069
   932  4.6828e-05  5.2963e-09  9.9239e-09  0:04:24 1068
   933  4.6731e-05  5.2852e-09  9.9029e-09  0:03:31 1067
   934  4.6634e-05  5.2741e-09  9.8821e-09  0:02:49 1066
   935  4.6539e-05  5.2632e-09  9.8615e-09  0:05:48 1065

  iter  continuity  x-velocity  y-velocity     time/iter
   936  4.6443e-05  5.2523e-09  9.8410e-09  0:04:38 1064
   937  4.6348e-05  5.2414e-09  9.8206e-09  0:03:42 1063
   938  4.6253e-05  5.2306e-09  9.8003e-09  0:02:58 1062
   939  4.6159e-05  5.2199e-09  9.7804e-09  0:02:22 1061
   940  4.6067e-05  5.2093e-09  9.7606e-09  0:05:26 1060
   941  4.5975e-05  5.1987e-09  9.7409e-09  0:04:20 1059
   942  4.5883e-05  5.1881e-09  9.7214e-09  0:03:28 1058
   943  4.5791e-05  5.1776e-09  9.7020e-09  0:02:46 1057
   944  4.5700e-05  5.1672e-09  9.6827e-09  0:05:44 1056
   945  4.5609e-05  5.1568e-09  9.6634e-09  0:04:35 1055
   946  4.5518e-05  5.1465e-09  9.6443e-09  0:03:40 1054

  iter  continuity  x-velocity  y-velocity     time/iter
   947  4.5428e-05  5.1361e-09  9.6252e-09  0:02:56 1053
   948  4.5339e-05  5.1259e-09  9.6062e-09  0:05:51 1052
   949  4.5251e-05  5.1157e-09  9.5875e-09  0:04:40 1051
   950  4.5163e-05  5.1055e-09  9.5687e-09  0:03:44 1050
   951  4.5075e-05  5.0953e-09  9.5500e-09  0:06:29 1049
   952  4.4988e-05  5.0853e-09  9.5315e-09  0:05:11 1048
   953  4.4900e-05  5.0752e-09  9.5129e-09  0:04:08 1047
   954  4.4813e-05  5.0652e-09  9.4944e-09  0:03:19 1046
   955  4.4726e-05  5.0552e-09  9.4759e-09  0:02:39 1045
   956  4.4640e-05  5.0453e-09  9.4575e-09  0:05:36 1044
   957  4.4554e-05  5.0354e-09  9.4391e-09  0:04:28 1043

  iter  continuity  x-velocity  y-velocity     time/iter
   958  4.4468e-05  5.0255e-09  9.4209e-09  0:03:34 1042
   959  4.4383e-05  5.0156e-09  9.4027e-09  0:02:51 1041
   960  4.4298e-05  5.0059e-09  9.3845e-09  0:05:45 1040
   961  4.4214e-05  4.9961e-09  9.3665e-09  0:04:36 1039
   962  4.4130e-05  4.9865e-09  9.3485e-09  0:03:40 1038
   963  4.4046e-05  4.9768e-09  9.3307e-09  0:02:56 1037
   964  4.3963e-05  4.9673e-09  9.3130e-09  0:05:48 1036
   965  4.3881e-05  4.9577e-09  9.2954e-09  0:04:38 1035
   966  4.3798e-05  4.9482e-09  9.2779e-09  0:03:42 1034
   967  4.3715e-05  4.9388e-09  9.2603e-09  0:02:58 1033
   968  4.3633e-05  4.9294e-09  9.2427e-09  0:02:22 1032

  iter  continuity  x-velocity  y-velocity     time/iter
   969  4.3551e-05  4.9200e-09  9.2252e-09  0:05:20 1031
   970  4.3469e-05  4.9107e-09  9.2077e-09  0:04:15 1030
   971  4.3387e-05  4.9014e-09  9.1902e-09  0:03:24 1029
   972  4.3305e-05  4.8921e-09  9.1726e-09  0:02:43 1028
   973  4.3223e-05  4.8828e-09  9.1550e-09  0:05:36 1027
   974  4.3142e-05  4.8735e-09  9.1375e-09  0:04:28 1026
   975  4.3060e-05  4.8642e-09  9.1200e-09  0:03:35 1025
   976  4.2979e-05  4.8550e-09  9.1025e-09  0:02:51 1024
   977  4.2897e-05  4.8458e-09  9.0849e-09  0:05:42 1023
   978  4.2816e-05  4.8366e-09  9.0674e-09  0:04:33 1022
   979  4.2734e-05  4.8274e-09  9.0500e-09  0:03:38 1021

  iter  continuity  x-velocity  y-velocity     time/iter
   980  4.2653e-05  4.8183e-09  9.0325e-09  0:02:54 1020
   981  4.2572e-05  4.8091e-09  9.0152e-09  0:02:19 1019
   982  4.2491e-05  4.8000e-09  8.9978e-09  0:05:15 1018
   983  4.2410e-05  4.7908e-09  8.9806e-09  0:04:12 1017
   984  4.2330e-05  4.7817e-09  8.9635e-09  0:03:21 1016
   985  4.2249e-05  4.7727e-09  8.9464e-09  0:02:41 1015
   986  4.2169e-05  4.7637e-09  8.9295e-09  0:05:31 1014
   987  4.2090e-05  4.7548e-09  8.9126e-09  0:04:25 1013
   988  4.2011e-05  4.7459e-09  8.8958e-09  0:03:32 1012
   989  4.1931e-05  4.7370e-09  8.8790e-09  0:02:49 1011
   990  4.1851e-05  4.7282e-09  8.8621e-09  0:05:37 1010

  iter  continuity  x-velocity  y-velocity     time/iter
   991  4.1771e-05  4.7194e-09  8.8454e-09  0:04:29 1009
   992  4.1692e-05  4.7106e-09  8.8289e-09  0:03:35 1008
   993  4.1614e-05  4.7019e-09  8.8124e-09  0:02:52 1007
   994  4.1536e-05  4.6932e-09  8.7962e-09  0:05:39 1006
   995  4.1459e-05  4.6846e-09  8.7802e-09  0:04:31 1005
   996  4.1381e-05  4.6761e-09  8.7644e-09  0:03:36 1004
   997  4.1304e-05  4.6676e-09  8.7486e-09  0:06:14 1003
   998  4.1226e-05  4.6591e-09  8.7329e-09  0:04:59 1002
   999  4.1147e-05  4.6507e-09  8.7168e-09  0:03:59 1001
  1000  4.1066e-05  4.6421e-09  8.7003e-09  0:03:11 1000
  1001  4.0985e-05  4.6335e-09  8.6836e-09  0:02:32  999

  iter  continuity  x-velocity  y-velocity     time/iter
  1002  4.0905e-05  4.6249e-09  8.6669e-09  0:05:21  998
  1003  4.0826e-05  4.6163e-09  8.6503e-09  0:04:17  997
  1004  4.0748e-05  4.6078e-09  8.6338e-09  0:03:25  996
  1005  4.0671e-05  4.5992e-09  8.6175e-09  0:02:44  995
  1006  4.0594e-05  4.5907e-09  8.6014e-09  0:05:30  994
  1007  4.0517e-05  4.5821e-09  8.5853e-09  0:04:24  993
  1008  4.0440e-05  4.5736e-09  8.5693e-09  0:03:31  992
  1009  4.0364e-05  4.5651e-09  8.5532e-09  0:02:48  991
  1010  4.0289e-05  4.5565e-09  8.5372e-09  0:05:33  990
  1011  4.0213e-05  4.5480e-09  8.5213e-09  0:04:26  989
  1012  4.0137e-05  4.5395e-09  8.5054e-09  0:03:32  988

  iter  continuity  x-velocity  y-velocity     time/iter
  1013  4.0062e-05  4.5310e-09  8.4896e-09  0:02:50  987
  1014  3.9986e-05  4.5224e-09  8.4737e-09  0:05:33  986
  1015  3.9910e-05  4.5139e-09  8.4579e-09  0:04:26  985
  1016  3.9834e-05  4.5055e-09  8.4420e-09  0:03:33  984
  1017  3.9758e-05  4.4970e-09  8.4261e-09  0:02:50  983
  1018  3.9682e-05  4.4886e-09  8.4102e-09  0:02:16  982
  1019  3.9607e-05  4.4801e-09  8.3943e-09  0:05:05  981
  1020  3.9532e-05  4.4717e-09  8.3785e-09  0:04:04  980
  1021  3.9456e-05  4.4633e-09  8.3626e-09  0:03:15  979
  1022  3.9381e-05  4.4550e-09  8.3469e-09  0:02:36  978
  1023  3.9306e-05  4.4466e-09  8.3312e-09  0:05:20  977

  iter  continuity  x-velocity  y-velocity     time/iter
  1024  3.9230e-05  4.4383e-09  8.3156e-09  0:04:16  976
  1025  3.9155e-05  4.4300e-09  8.3001e-09  0:03:24  975
  1026  3.9080e-05  4.4218e-09  8.2845e-09  0:02:43  974
  1027  3.9004e-05  4.4135e-09  8.2691e-09  0:05:25  973
  1028  3.8929e-05  4.4052e-09  8.2536e-09  0:04:20  972
  1029  3.8854e-05  4.3970e-09  8.2382e-09  0:03:28  971
  1030  3.8779e-05  4.3889e-09  8.2228e-09  0:02:46  970
  1031  3.8704e-05  4.3807e-09  8.2074e-09  0:02:13  969
  1032  3.8630e-05  4.3726e-09  8.1921e-09  0:05:00  968
  1033  3.8555e-05  4.3644e-09  8.1768e-09  0:03:59  967
  1034  3.8481e-05  4.3563e-09  8.1616e-09  0:03:11  966

[...]
  1743  1.1982e-05  1.3405e-09  2.4137e-09  0:01:07  257
  1744  1.1963e-05  1.3384e-09  2.4100e-09  0:00:54  256
  1745  1.1945e-05  1.3364e-09  2.4064e-09  0:00:43  255
  1746  1.1927e-05  1.3344e-09  2.4027e-09  0:01:25  254
  1747  1.1909e-05  1.3324e-09  2.3991e-09  0:01:08  253
  1748  1.1892e-05  1.3304e-09  2.3955e-09  0:00:54  252
  1749  1.1874e-05  1.3284e-09  2.3920e-09  0:00:43  251

  iter  continuity  x-velocity  y-velocity     time/iter
  1750  1.1856e-05  1.3264e-09  2.3884e-09  0:01:24  250
  1751  1.1839e-05  1.3244e-09  2.3848e-09  0:01:07  249
  1752  1.1821e-05  1.3224e-09  2.3813e-09  0:00:53  248
  1753  1.1804e-05  1.3204e-09  2.3778e-09  0:00:43  247
  1754  1.1786e-05  1.3185e-09  2.3742e-09  0:00:34  246
  1755  1.1769e-05  1.3165e-09  2.3707e-09  0:01:16  245
  1756  1.1752e-05  1.3146e-09  2.3672e-09  0:01:01  244
  1757  1.1735e-05  1.3127e-09  2.3638e-09  0:00:48  243
  1758  1.1718e-05  1.3108e-09  2.3603e-09  0:00:38  242
  1759  1.1701e-05  1.3088e-09  2.3568e-09  0:01:19  241
  1760  1.1684e-05  1.3069e-09  2.3533e-09  0:01:03  240

  iter  continuity  x-velocity  y-velocity     time/iter
  1761  1.1667e-05  1.3050e-09  2.3499e-09  0:00:50  239
  1762  1.1650e-05  1.3031e-09  2.3464e-09  0:00:40  238
  1763  1.1634e-05  1.3012e-09  2.3428e-09  0:01:19  237
  1764  1.1617e-05  1.2993e-09  2.3391e-09  0:01:03  236
  1765  1.1600e-05  1.2974e-09  2.3355e-09  0:00:50  235
  1766  1.1583e-05  1.2955e-09  2.3319e-09  0:00:40  234
  1767  1.1567e-05  1.2937e-09  2.3284e-09  0:01:18  233
  1768  1.1551e-05  1.2918e-09  2.3250e-09  0:01:03  232
  1769  1.1534e-05  1.2900e-09  2.3217e-09  0:00:50  231
  1770  1.1518e-05  1.2881e-09  2.3184e-09  0:00:40  230
  1771  1.1502e-05  1.2863e-09  2.3151e-09  0:01:17  229

  iter  continuity  x-velocity  y-velocity     time/iter
  1772  1.1486e-05  1.2845e-09  2.3119e-09  0:01:02  228
  1773  1.1470e-05  1.2826e-09  2.3086e-09  0:00:49  227
  1774  1.1454e-05  1.2808e-09  2.3054e-09  0:00:39  226
  1775  1.1438e-05  1.2791e-09  2.3021e-09  0:01:16  225
  1776  1.1422e-05  1.2773e-09  2.2989e-09  0:01:01  224
  1777  1.1406e-05  1.2756e-09  2.2957e-09  0:00:48  223
  1778  1.1390e-05  1.2739e-09  2.2926e-09  0:00:38  222
  1779  1.1375e-05  1.2722e-09  2.2894e-09  0:01:15  221
  1780  1.1359e-05  1.2705e-09  2.2863e-09  0:01:00  220
  1781  1.1344e-05  1.2688e-09  2.2834e-09  0:00:47  219
  1782  1.1328e-05  1.2672e-09  2.2805e-09  0:00:38  218

  iter  continuity  x-velocity  y-velocity     time/iter
  1783  1.1313e-05  1.2655e-09  2.2776e-09  0:01:13  217
  1784  1.1298e-05  1.2639e-09  2.2748e-09  0:00:59  216
  1785  1.1284e-05  1.2623e-09  2.2720e-09  0:00:47  215
  1786  1.1269e-05  1.2606e-09  2.2692e-09  0:00:37  214
  1787  1.1255e-05  1.2590e-09  2.2664e-09  0:00:30  213
  1788  1.1241e-05  1.2574e-09  2.2636e-09  0:01:06  212
  1789  1.1227e-05  1.2558e-09  2.2609e-09  0:00:52  211
  1790  1.1213e-05  1.2541e-09  2.2581e-09  0:00:42  210
  1791  1.1200e-05  1.2525e-09  2.2554e-09  0:00:33  209
  1792  1.1186e-05  1.2509e-09  2.2527e-09  0:01:08  208
  1793  1.1173e-05  1.2493e-09  2.2500e-09  0:00:54  207

  iter  continuity  x-velocity  y-velocity     time/iter
  1794  1.1160e-05  1.2476e-09  2.2473e-09  0:00:43  206
  1795  1.1147e-05  1.2460e-09  2.2446e-09  0:00:34  205
  1796  1.1127e-05  1.2443e-09  2.2408e-09  0:01:08  204
  1797  1.1103e-05  1.2422e-09  2.2359e-09  0:00:54  203
  1798  1.1077e-05  1.2398e-09  2.2306e-09  0:00:43  202
  1799  1.1052e-05  1.2375e-09  2.2253e-09  0:00:34  201
  1800  1.1028e-05  1.2352e-09  2.2203e-09  0:01:07  200
  1801  1.1005e-05  1.2328e-09  2.2157e-09  0:00:54  199
  1802  1.0981e-05  1.2304e-09  2.2112e-09  0:00:43  198
  1803  1.0958e-05  1.2282e-09  2.2069e-09  0:00:34  197
  1804  1.0935e-05  1.2260e-09  2.2033e-09  0:01:06  196

  iter  continuity  x-velocity  y-velocity     time/iter
  1805  1.0915e-05  1.2238e-09  2.1998e-09  0:00:53  195
  1806  1.0896e-05  1.2217e-09  2.1963e-09  0:00:42  194
  1807  1.0877e-05  1.2197e-09  2.1927e-09  0:00:33  193
  1808  1.0860e-05  1.2178e-09  2.1894e-09  0:00:27  192
  1809  1.0844e-05  1.2159e-09  2.1862e-09  0:00:59  191
  1810  1.0829e-05  1.2141e-09  2.1832e-09  0:00:47  190
  1811  1.0815e-05  1.2122e-09  2.1802e-09  0:00:38  189
  1812  1.0800e-05  1.2103e-09  2.1772e-09  0:01:08  188
  1813  1.0786e-05  1.2085e-09  2.1741e-09  0:00:54  187
  1814  1.0771e-05  1.2067e-09  2.1711e-09  0:00:43  186
  1815  1.0756e-05  1.2049e-09  2.1679e-09  0:00:34  185

  iter  continuity  x-velocity  y-velocity     time/iter
  1816  1.0740e-05  1.2031e-09  2.1647e-09  0:01:04  184
  1817  1.0725e-05  1.2013e-09  2.1615e-09  0:00:51  183
  1818  1.0709e-05  1.1994e-09  2.1582e-09  0:00:40  182
  1819  1.0692e-05  1.1976e-09  2.1548e-09  0:00:32  181
  1820  1.0676e-05  1.1957e-09  2.1513e-09  0:01:02  180
  1821  1.0659e-05  1.1938e-09  2.1479e-09  0:00:49  179
  1822  1.0642e-05  1.1919e-09  2.1444e-09  0:00:39  178
  1823  1.0625e-05  1.1900e-09  2.1409e-09  0:00:31  177
  1824  1.0608e-05  1.1880e-09  2.1374e-09  0:00:25  176
  1825  1.0591e-05  1.1861e-09  2.1339e-09  0:00:55  175
  1826  1.0574e-05  1.1842e-09  2.1304e-09  0:00:43  174

  iter  continuity  x-velocity  y-velocity     time/iter
  1827  1.0557e-05  1.1823e-09  2.1269e-09  0:00:35  173
  1828  1.0540e-05  1.1805e-09  2.1235e-09  0:00:27  172
  1829  1.0523e-05  1.1786e-09  2.1201e-09  0:00:56  171
  1830  1.0506e-05  1.1768e-09  2.1168e-09  0:00:45  170
  1831  1.0489e-05  1.1750e-09  2.1135e-09  0:00:35  169
  1832  1.0472e-05  1.1732e-09  2.1102e-09  0:00:28  168
  1833  1.0455e-05  1.1714e-09  2.1069e-09  0:00:56  167
  1834  1.0438e-05  1.1696e-09  2.1037e-09  0:00:44  166
  1835  1.0422e-05  1.1679e-09  2.1005e-09  0:00:35  165
  1836  1.0405e-05  1.1661e-09  2.0974e-09  0:00:28  164
  1837  1.0389e-05  1.1644e-09  2.0943e-09  0:00:22  163

  iter  continuity  x-velocity  y-velocity     time/iter
  1838  1.0373e-05  1.1627e-09  2.0912e-09  0:00:50  162
  1839  1.0357e-05  1.1610e-09  2.0881e-09  0:00:40  161
  1840  1.0341e-05  1.1593e-09  2.0850e-09  0:00:32  160
  1841  1.0325e-05  1.1576e-09  2.0820e-09  0:00:25  159
  1842  1.0309e-05  1.1559e-09  2.0790e-09  0:00:52  158
  1843  1.0294e-05  1.1543e-09  2.0760e-09  0:00:41  157
  1844  1.0278e-05  1.1526e-09  2.0731e-09  0:00:33  156
  1845  1.0263e-05  1.1510e-09  2.0701e-09  0:00:26  155
  1846  1.0247e-05  1.1493e-09  2.0672e-09  0:00:51  154
  1847  1.0232e-05  1.1477e-09  2.0643e-09  0:00:41  153
  1848  1.0217e-05  1.1460e-09  2.0613e-09  0:00:32  152

  iter  continuity  x-velocity  y-velocity     time/iter
  1849  1.0202e-05  1.1444e-09  2.0584e-09  0:00:26  151
  1850  1.0187e-05  1.1428e-09  2.0555e-09  0:00:51  150
  1851  1.0172e-05  1.1411e-09  2.0526e-09  0:00:40  149
  1852  1.0157e-05  1.1395e-09  2.0496e-09  0:00:32  148
  1853  1.0142e-05  1.1378e-09  2.0468e-09  0:00:25  147
  1854  1.0127e-05  1.1362e-09  2.0439e-09  0:00:20  146
  1855  1.0112e-05  1.1346e-09  2.0411e-09  0:00:45  145
  1856  1.0098e-05  1.1330e-09  2.0383e-09  0:00:36  144
  1857  1.0083e-05  1.1315e-09  2.0355e-09  0:00:28  143
  1858  1.0069e-05  1.1299e-09  2.0328e-09  0:00:51  142
  1859  1.0054e-05  1.1283e-09  2.0300e-09  0:00:40  141

  iter  continuity  x-velocity  y-velocity     time/iter
  1860  1.0040e-05  1.1268e-09  2.0273e-09  0:00:32  140
  1861  1.0026e-05  1.1252e-09  2.0246e-09  0:00:26  139
  1862  1.0012e-05  1.1237e-09  2.0219e-09  0:00:48  138
  1863  9.9979e-06  1.1222e-09  2.0192e-09  0:00:38  137
  1864  9.9841e-06  1.1207e-09  2.0166e-09  0:00:30  136
  1865  9.9703e-06  1.1192e-09  2.0139e-09  0:00:24  135
  1866  9.9565e-06  1.1177e-09  2.0113e-09  0:00:46  134
  1867  9.9429e-06  1.1162e-09  2.0086e-09  0:00:36  133
  1868  9.9294e-06  1.1147e-09  2.0060e-09  0:00:29  132
  1869  9.9159e-06  1.1132e-09  2.0034e-09  0:00:23  131
  1870  9.9025e-06  1.1117e-09  2.0008e-09  0:00:18  130

  iter  continuity  x-velocity  y-velocity     time/iter
  1871  9.8892e-06  1.1103e-09  1.9983e-09  0:00:40  129
  1872  9.8759e-06  1.1088e-09  1.9957e-09  0:00:32  128
  1873  9.8627e-06  1.1074e-09  1.9931e-09  0:00:25  127
  1874  9.8496e-06  1.1059e-09  1.9906e-09  0:00:20  126
  1875  9.8365e-06  1.1045e-09  1.9881e-09  0:00:41  125
  1876  9.8235e-06  1.1031e-09  1.9856e-09  0:00:33  124
  1877  9.8106e-06  1.1016e-09  1.9831e-09  0:00:26  123
  1878  9.7977e-06  1.1002e-09  1.9806e-09  0:00:20  122
  1879  9.7848e-06  1.0988e-09  1.9781e-09  0:00:40  121
  1880  9.7720e-06  1.0974e-09  1.9756e-09  0:00:32  120
  1881  9.7592e-06  1.0960e-09  1.9732e-09  0:00:25  119

  iter  continuity  x-velocity  y-velocity     time/iter
  1882  9.7464e-06  1.0946e-09  1.9707e-09  0:00:20  118
  1883  9.7338e-06  1.0932e-09  1.9682e-09  0:00:16  117
  1884  9.7212e-06  1.0918e-09  1.9658e-09  0:00:36  116
  1885  9.7088e-06  1.0904e-09  1.9634e-09  0:00:28  115
  1886  9.6963e-06  1.0891e-09  1.9609e-09  0:00:23  114
  1887  9.6839e-06  1.0877e-09  1.9585e-09  0:00:18  113
  1888  9.6716e-06  1.0863e-09  1.9561e-09  0:00:37  112
  1889  9.6593e-06  1.0850e-09  1.9537e-09  0:00:29  111
  1890  9.6471e-06  1.0836e-09  1.9513e-09  0:00:23  110
  1891  9.6349e-06  1.0823e-09  1.9489e-09  0:00:18  109
  1892  9.6222e-06  1.0809e-09  1.9464e-09  0:00:36  108

  iter  continuity  x-velocity  y-velocity     time/iter
  1893  9.6093e-06  1.0795e-09  1.9439e-09  0:00:29  107
  1894  9.5963e-06  1.0781e-09  1.9413e-09  0:00:23  106
  1895  9.5826e-06  1.0767e-09  1.9386e-09  0:00:18  105
  1896  9.5684e-06  1.0752e-09  1.9357e-09  0:00:14  104
  1897  9.5540e-06  1.0736e-09  1.9327e-09  0:00:32  103
  1898  9.5397e-06  1.0720e-09  1.9296e-09  0:00:25  102
  1899  9.5261e-06  1.0703e-09  1.9266e-09  0:00:20  101
  1900  9.5129e-06  1.0687e-09  1.9235e-09  0:00:16  100
  1901  9.4998e-06  1.0670e-09  1.9205e-09  0:00:32   99
  1902  9.4868e-06  1.0654e-09  1.9176e-09  0:00:26   98
  1903  9.4739e-06  1.0638e-09  1.9148e-09  0:00:20   97

  iter  continuity  x-velocity  y-velocity     time/iter
  1904  9.4609e-06  1.0623e-09  1.9120e-09  0:00:35   96
  1905  9.4480e-06  1.0607e-09  1.9092e-09  0:00:28   95
  1906  9.4351e-06  1.0592e-09  1.9065e-09  0:00:22   94
  1907  9.4223e-06  1.0577e-09  1.9037e-09  0:00:17   93
  1908  9.4089e-06  1.0562e-09  1.9009e-09  0:00:32   92
  1909  9.3961e-06  1.0547e-09  1.8984e-09  0:00:26   91
  1910  9.3842e-06  1.0531e-09  1.8959e-09  0:00:20   90
  1911  9.3728e-06  1.0516e-09  1.8934e-09  0:00:16   89
  1912  9.3631e-06  1.0501e-09  1.8910e-09  0:00:30   88
  1913  9.3564e-06  1.0488e-09  1.8888e-09  0:00:24   87
  1914  9.3489e-06  1.0475e-09  1.8865e-09  0:00:19   86

  iter  continuity  x-velocity  y-velocity     time/iter
  1915  9.3391e-06  1.0461e-09  1.8845e-09  0:00:15   85
  1916  9.3307e-06  1.0446e-09  1.8825e-09  0:00:12   84
  1917  9.3275e-06  1.0431e-09  1.8803e-09  0:00:26   83
  1918  9.3235e-06  1.0416e-09  1.8782e-09  0:00:21   82
  1919  9.3168e-06  1.0402e-09  1.8763e-09  0:00:16   81
  1920  9.3087e-06  1.0388e-09  1.8745e-09  0:00:13   80
  1921  9.2992e-06  1.0376e-09  1.8727e-09  0:00:26   79
  1922  9.2875e-06  1.0365e-09  1.8709e-09  0:00:20   78
  1923  9.2730e-06  1.0358e-09  1.8688e-09  0:00:16   77
  1924  9.2578e-06  1.0350e-09  1.8668e-09  0:00:13   76
  1925  9.2418e-06  1.0343e-09  1.8645e-09  0:00:25   75

  iter  continuity  x-velocity  y-velocity     time/iter
  1926  9.2278e-06  1.0334e-09  1.8622e-09  0:00:20   74
  1927  9.2131e-06  1.0325e-09  1.8599e-09  0:00:16   73
  1928  9.1985e-06  1.0315e-09  1.8580e-09  0:00:12   72
  1929  9.1857e-06  1.0305e-09  1.8558e-09  0:00:24   71
  1930  9.1725e-06  1.0294e-09  1.8532e-09  0:00:19   70
  1931  9.1581e-06  1.0281e-09  1.8505e-09  0:00:15   69
  1932  9.1429e-06  1.0266e-09  1.8474e-09  0:00:12   68
  1933  9.1270e-06  1.0250e-09  1.8442e-09  0:00:09   67
  1934  9.1110e-06  1.0234e-09  1.8409e-09  0:00:20   66
  1935  9.0954e-06  1.0217e-09  1.8375e-09  0:00:16   65
  1936  9.0791e-06  1.0199e-09  1.8339e-09  0:00:13   64

  iter  continuity  x-velocity  y-velocity     time/iter
  1937  9.0626e-06  1.0181e-09  1.8303e-09  0:00:10   63
  1938  9.0462e-06  1.0162e-09  1.8267e-09  0:00:20   62
  1939  9.0310e-06  1.0143e-09  1.8237e-09  0:00:16   61
  1940  9.0218e-06  1.0125e-09  1.8210e-09  0:00:13   60
  1941  9.0156e-06  1.0107e-09  1.8184e-09  0:00:10   59
  1942  9.0104e-06  1.0091e-09  1.8160e-09  0:00:19   58
  1943  9.0043e-06  1.0077e-09  1.8137e-09  0:00:15   57
  1944  8.9974e-06  1.0063e-09  1.8117e-09  0:00:12   56
  1945  8.9897e-06  1.0049e-09  1.8097e-09  0:00:20   55
  1946  8.9814e-06  1.0037e-09  1.8076e-09  0:00:16   54
  1947  8.9725e-06  1.0025e-09  1.8056e-09  0:00:13   53

  iter  continuity  x-velocity  y-velocity     time/iter
  1948  8.9631e-06  1.0014e-09  1.8035e-09  0:00:10   52
  1949  8.9529e-06  1.0003e-09  1.8014e-09  0:00:08   51
  1950  8.9422e-06  9.9919e-10  1.7993e-09  0:00:16   50
  1951  8.9310e-06  9.9810e-10  1.7971e-09  0:00:13   49
  1952  8.9193e-06  9.9703e-10  1.7948e-09  0:00:10   48
  1953  8.9073e-06  9.9594e-10  1.7924e-09  0:00:08   47
  1954  8.8952e-06  9.9482e-10  1.7900e-09  0:00:15   46
  1955  8.8832e-06  9.9367e-10  1.7876e-09  0:00:12   45
  1956  8.8714e-06  9.9249e-10  1.7853e-09  0:00:09   44
  1957  8.8599e-06  9.9128e-10  1.7829e-09  0:00:07   43
  1958  8.8488e-06  9.9004e-10  1.7806e-09  0:00:14   42

  iter  continuity  x-velocity  y-velocity     time/iter
  1959  8.8382e-06  9.8878e-10  1.7782e-09  0:00:11   41
  1960  8.8281e-06  9.8752e-10  1.7759e-09  0:00:09   40
  1961  8.8184e-06  9.8624e-10  1.7737e-09  0:00:07   39
  1962  8.8090e-06  9.8498e-10  1.7715e-09  0:00:05   38
  1963  8.7999e-06  9.8372e-10  1.7693e-09  0:00:11   37
  1964  8.7911e-06  9.8249e-10  1.7672e-09  0:00:09   36
  1965  8.7826e-06  9.8128e-10  1.7652e-09  0:00:07   35
  1966  8.7744e-06  9.8009e-10  1.7631e-09  0:00:05   34
  1967  8.7662e-06  9.7894e-10  1.7611e-09  0:00:11   33
  1968  8.7581e-06  9.7782e-10  1.7591e-09  0:00:08   32
  1969  8.7501e-06  9.7673e-10  1.7571e-09  0:00:06   31

  iter  continuity  x-velocity  y-velocity     time/iter
  1970  8.7420e-06  9.7566e-10  1.7552e-09  0:00:05   30
  1971  8.7340e-06  9.7463e-10  1.7532e-09  0:00:10   29
  1972  8.7259e-06  9.7362e-10  1.7513e-09  0:00:07   28
  1973  8.7179e-06  9.7262e-10  1.7494e-09  0:00:06   27
  1974  8.7098e-06  9.7164e-10  1.7475e-09  0:00:04   26
  1975  8.7016e-06  9.7066e-10  1.7456e-09  0:00:03   25
  1976  8.6935e-06  9.6969e-10  1.7437e-09  0:00:07   24
  1977  8.6855e-06  9.6872e-10  1.7418e-09  0:00:06   23
  1978  8.6777e-06  9.6776e-10  1.7399e-09  0:00:04   22
  1979  8.6700e-06  9.6680e-10  1.7380e-09  0:00:03   21
  1980  8.6623e-06  9.6585e-10  1.7361e-09  0:00:07   20

  iter  continuity  x-velocity  y-velocity     time/iter
  1981  8.6548e-06  9.6489e-10  1.7343e-09  0:00:05   19
  1982  8.6474e-06  9.6393e-10  1.7324e-09  0:00:04   18
  1983  8.6403e-06  9.6298e-10  1.7306e-09  0:00:03   17
  1984  8.6335e-06  9.6204e-10  1.7288e-09  0:00:05   16
  1985  8.6268e-06  9.6111e-10  1.7271e-09  0:00:04   15
  1986  8.6203e-06  9.6019e-10  1.7253e-09  0:00:03   14
  1987  8.6140e-06  9.5927e-10  1.7236e-09  0:00:02   13
  1988  8.6078e-06  9.5836e-10  1.7219e-09  0:00:04   12
  1989  8.6019e-06  9.5746e-10  1.7203e-09  0:00:03   11
  1990  8.5961e-06  9.5657e-10  1.7186e-09  0:00:02   10
  1991  8.5906e-06  9.5570e-10  1.7170e-09  0:00:03    9

  iter  continuity  x-velocity  y-velocity     time/iter
  1992  8.5851e-06  9.5484e-10  1.7154e-09  0:00:02    8
  1993  8.5799e-06  9.5399e-10  1.7138e-09  0:00:02    7
  1994  8.5747e-06  9.5315e-10  1.7122e-09  0:00:01    6
  1995  8.5696e-06  9.5232e-10  1.7107e-09  0:00:01    5
  1996  8.5646e-06  9.5151e-10  1.7091e-09  0:00:01    4
  1997  8.5598e-06  9.5070e-10  1.7076e-09  0:00:01    3
  1998  8.5550e-06  9.4990e-10  1.7061e-09  0:00:00    2
  1999  8.5505e-06  9.4911e-10  1.7046e-09  0:00:00    1
  2000  8.5460e-06  9.4834e-10  1.7031e-09  0:00:00    0

> 
adjoint/                parallel/               server/
define/                 parametric-study/       solve/
display/                plot/                   surface/
exit                    preferences/            views/
file/                   print-license-usage
mesh/                   report/

> ;create rakes
surface/rake-surface cv_inlet -0.005 -0.065 -0.005 0.065 1000

> surface/rake-surface cv_outlet 1.005 -0.065 1.005 0.065 1000

> surface/rake-surface cv_top -0.005 0.065 1.005 0.065 1000

> surface/rake-surface cv_bottom -0.005 -0.065 1.005 -0.065 1000

> surface/point-surface free-stream -15 0

> 
adjoint/                parallel/               server/
define/                 parametric-study/       solve/
display/                plot/                   surface/
exit                    preferences/            views/
file/                   print-license-usage
mesh/                   report/

> ;export data
file/export/ascii NP_CVinlet_data cv_inlet () no pressure x-velocity y-velocity dx-velocity-dx dx-velocity-dy dy-velocity-dx dy-velocity-dy q no 
Writing "NP_CVinlet_data"...

Writing information to ascii file ...
Done.

ok


Overwrite confirmations (/file/set-batch-options ...)
are on -- will therefore ignore the following journal
Error: invalid command: ok


> file/export/ascii NP_CVoutlet_data cv_outlet () no pressure x-velocity y-velocity dx-velocity-dx dx-velocity-dy dy-velocity-dx dy-velocity-dy q no 
Writing "NP_CVoutlet_data"...

Writing information to ascii file ...
Done.

ok


Overwrite confirmations (/file/set-batch-options ...)
are on -- will therefore ignore the following journal
Error: invalid command: ok


> file/export/ascii NP_CVtop_data cv_top () no pressure x-velocity y-velocity dx-velocity-dx dx-velocity-dy dy-velocity-dx dy-velocity-dy q no 
Writing "NP_CVtop_data"...

Writing information to ascii file ...
Done.

ok


Overwrite confirmations (/file/set-batch-options ...)
are on -- will therefore ignore the following journal
Error: invalid command: ok


> file/export/ascii NP_CVbottom_data cv_bottom () no pressure x-velocity y-velocity dx-velocity-dx dx-velocity-dy dy-velocity-dx dy-velocity-dy q no 
Writing "NP_CVbottom_data"...

Writing information to ascii file ...
Done.

ok


Overwrite confirmations (/file/set-batch-options ...)
are on -- will therefore ignore the following journal
Error: invalid command: ok


> file/export/ascii air_properties free-stream () no density viscosity-lam q no 
Writing "air_properties"...

Writing information to ascii file ...
Done.

ok


Overwrite confirmations (/file/set-batch-options ...)
are on -- will therefore ignore the following journal
Error: invalid command: ok


> 
adjoint/                parallel/               server/
define/                 parametric-study/       solve/
display/                plot/                   surface/
exit                    preferences/            views/
file/                   print-license-usage
mesh/                   report/

> ;flag file to know when simulation is over
file/export/ascii flag_file free-stream () no pressure q no 
Writing "flag_file"...

Writing information to ascii file ...
Done.

ok


Overwrite confirmations (/file/set-batch-options ...)
are on -- will therefore ignore the following journal
Error: invalid command: ok


> /exit ok

Posting ANSYS Product Improvement Program performance data 
Done.
Auto-Transcript Stop Time:  19:28:36, 01 Jul 2025 GMT Summer Time 
Total Transcript Time: 15 Minute 13 Second.
