Auto-Transcript Start Time:  21:18:41, 20 Jul 2025 GMT Summer Time 
Current Directory: "C:\Users\V.Chepuri\OneDrive - Cranfield University\irp\pablo\re_20000\AOA_4"

              Welcome to ANSYS Fluent 2024 R2

              Copyright 1987-2024 ANSYS, Inc. All Rights Reserved.
              Unauthorized use, distribution or duplication is prohibited.
              This product is subject to U.S. laws governing export and re-export.
              For full Legal Notice, see documentation.

Build Time: May 13 2024 11:28:30 EST  Build Id: 10192  
 
Connected License Server List:	1055@cclic-2.central.cranfield.ac.uk

*********************************************
Info: Your license enables 4-way parallel execution.
For faster simulations, please start the application with the appropriate parallel options.
*********************************************


     --------------------------------------------------------------
     This is an academic version of ANSYS FLUENT. Usage of this product
     license is limited to the terms and conditions specified in your ANSYS
     license form, additional terms section.
     --------------------------------------------------------------
Host spawning Node 0 on machine "37PCL050" (win64).

-------------------------------------------------------------------------------
ID    Hostname  Core  O.S.         PID    Vendor                          
-------------------------------------------------------------------------------
n0    37PCL050  1/28  Windows-x64  13996  Intel(R) Core(TM) i7-14700      
host  37PCL050        Windows-x64  21948  Intel(R) Core(TM) i7-14700      

MPI Option Selected: intel
-------------------------------------------------------------------------------

Cleanup script file is C:\\Users\\V.Chepuri\\OneDrive - Cranfield University\\irp\\pablo\\re_20000\\AOA_4\\cleanup-fluent-37PCL050-21948.bat

Posting ANSYS Product Improvement Program startup data
Done.

> (cx-gui-do cx-activate-item "Key Behavioral Changes*PanelButtons*PushButton1(OK)")
(cx-gui-do cx-activate-item "MenuBar*ReadSubMenu*Case...")
(cx-gui-do cx-set-file-dialog-entries "Select File" '( "template_medium.cas.h5") "CFF Case Files (*.cas.h5 *.msh.h5 *.MSH.h5 )")
Fast-loading "C:\PROGRA~1\ANSYSI~1\v242\fluent\fluent24.2.0\\addons\afd\lib\hdfio.bin"
Done.
Note: Rank = 0: Process affinity not being set (6).

Reading from 37PCL050:"C:/Users/V.Chepuri/OneDrive - Cranfield University/irp/pablo/re_20000/AOA_4/template_medium.cas.h5" in NODE0 mode ...
  Reading mesh ...
      181070 cells,     4 cell zones ...
          36824 mixed cells,  zone id: 2
         108032 mixed cells,  zone id: 4
          27008 mixed cells,  zone id: 12
           9206 mixed cells,  zone id: 11
      309160 faces,    14 face zones ...
          65137 2D interior faces,  zone id: 3
         181145 2D interior faces,  zone id: 5
             42 2D velocity-inlet faces,  zone id: 6
             38 2D pressure-outlet faces,  zone id: 7
             40 2D velocity-inlet faces,  zone id: 8
            458 2D interior faces,  zone id: 9
            456 2D interior faces,  zone id: 10
            228 2D parent-face faces,  zone id: 19
            229 2D parent-face faces,  zone id: 18
             20 2D parent-face faces,  zone id: 17
             19 2D parent-face faces,  zone id: 16
             21 2D parent-face faces,  zone id: 15
          45157 2D parent-face faces,  zone id: 14
          16170 2D parent-face faces,  zone id: 13
      102461 nodes,     1 node zone  ...
  Done.


Building...
     mesh
     materials,
     interface,
     domains,
	mixture
     zones,
	outlet
	inlet
	interior-fluid
	interior-porous
	symmetry
	upper
	lower
	fluid
	porous
WARNING: "Smooth" contours can't be displayed when node-values is set to off. Changing the Coloring type to "Banded".
     parallel,
Done.
(cx-gui-do cx-set-list-tree-selections "NavigationPane*Frame2*Table1*List_Tree2" (list "Setup|Boundary Conditions|Inlet|inlet (velocity-inlet, id=6)"))
(cx-gui-do cx-set-list-tree-selections "NavigationPane*Frame2*Table1*List_Tree2" (list "Setup|Boundary Conditions|Inlet|inlet (velocity-inlet, id=6)"))
(cx-gui-do cx-activate-item "NavigationPane*Frame2*Table1*List_Tree2")
(cx-gui-do cx-set-list-tree-selections "NavigationPane*Frame2*Table1*List_Tree2" (list "Setup|Boundary Conditions|Inlet|inlet (velocity-inlet, id=6)"))
(cx-gui-do cx-activate-tab-index "Velocity Inlet*Frame2*Frame2" 0)
(cx-gui-do cx-activate-tab-index "Velocity Inlet*Frame2*Frame2" 1)
(cx-gui-do cx-activate-tab-index "Velocity Inlet*Frame2*Frame2" 0)
(cx-gui-do cx-activate-tab-index "Velocity Inlet*Frame2*Frame2" 2)
(cx-gui-do cx-activate-tab-index "Velocity Inlet*Frame2*Frame2" 0)
(cx-gui-do cx-activate-tab-index "Velocity Inlet*Frame2*Frame2" 3)
(cx-gui-do cx-activate-tab-index "Velocity Inlet*Frame2*Frame2" 0)
(cx-gui-do cx-activate-tab-index "Velocity Inlet*Frame2*Frame2" 4)
(cx-gui-do cx-activate-tab-index "Velocity Inlet*Frame2*Frame2" 0)
(cx-gui-do cx-activate-tab-index "Velocity Inlet*Frame2*Frame2" 5)
(cx-gui-do cx-activate-tab-index "Velocity Inlet*Frame2*Frame2" 0)
(cx-gui-do cx-activate-tab-index "Velocity Inlet*Frame2*Frame2" 6)
(cx-gui-do cx-activate-tab-index "Velocity Inlet*Frame2*Frame2" 0)
(cx-gui-do cx-activate-tab-index "Velocity Inlet*Frame2*Frame2" 7)
(cx-gui-do cx-activate-tab-index "Velocity Inlet*Frame2*Frame2" 0)
(cx-gui-do cx-activate-tab-index "Velocity Inlet*Frame2*Frame2" 8)
(cx-gui-do cx-activate-tab-index "Velocity Inlet*Frame2*Frame2" 0)
(cx-gui-do cx-set-list-tree-selections "NavigationPane*Frame2*Table1*List_Tree2" (list "Setup|Boundary Conditions|Inlet|symmetry (velocity-inlet, id=8)"))
(cx-gui-do cx-set-list-tree-selections "NavigationPane*Frame2*Table1*List_Tree2" (list "Setup|Boundary Conditions|Inlet|symmetry (velocity-inlet, id=8)"))
(cx-gui-do cx-activate-item "NavigationPane*Frame2*Table1*List_Tree2")
(cx-gui-do cx-set-list-tree-selections "NavigationPane*Frame2*Table1*List_Tree2" (list "Setup|Boundary Conditions|Inlet|symmetry (velocity-inlet, id=8)"))
(cx-gui-do cx-activate-tab-index "Velocity Inlet*Frame2*Frame2" 0)
(cx-gui-do cx-activate-tab-index "Velocity Inlet*Frame2*Frame2" 1)
(cx-gui-do cx-activate-tab-index "Velocity Inlet*Frame2*Frame2" 0)
(cx-gui-do cx-activate-tab-index "Velocity Inlet*Frame2*Frame2" 2)
(cx-gui-do cx-activate-tab-index "Velocity Inlet*Frame2*Frame2" 0)
(cx-gui-do cx-activate-tab-index "Velocity Inlet*Frame2*Frame2" 3)
(cx-gui-do cx-activate-tab-index "Velocity Inlet*Frame2*Frame2" 0)
(cx-gui-do cx-activate-tab-index "Velocity Inlet*Frame2*Frame2" 4)
(cx-gui-do cx-activate-tab-index "Velocity Inlet*Frame2*Frame2" 0)
(cx-gui-do cx-activate-tab-index "Velocity Inlet*Frame2*Frame2" 5)
(cx-gui-do cx-activate-tab-index "Velocity Inlet*Frame2*Frame2" 0)
(cx-gui-do cx-activate-tab-index "Velocity Inlet*Frame2*Frame2" 6)
(cx-gui-do cx-activate-tab-index "Velocity Inlet*Frame2*Frame2" 0)
(cx-gui-do cx-activate-tab-index "Velocity Inlet*Frame2*Frame2" 7)
(cx-gui-do cx-activate-tab-index "Velocity Inlet*Frame2*Frame2" 0)
(cx-gui-do cx-activate-tab-index "Velocity Inlet*Frame2*Frame2" 8)
(cx-gui-do cx-activate-tab-index "Velocity Inlet*Frame2*Frame2" 0)
(cx-gui-do cx-activate-item "Velocity Inlet*PanelButtons*PushButton2(Cancel)")
(cx-gui-do cx-activate-item "Velocity Inlet*PanelButtons*PushButton2(Cancel)")
(cx-gui-do cx-activate-item "MenuBar*ReadSubMenu*Journal...")

Reading journal file C:/Users/V.Chepuri/OneDrive - Cranfield University/irp/pablo/re_20000/AOA_4/template.jou...

> ;change to correct dir

file/read-case template_medium.cas.h5 Note: Rank = 0: Process affinity not being set (6).

       Clearing partially read grid.

Reading from 37PCL050:"C:\Users\V.Chepuri\OneDrive - Cranfield University\irp\pablo\re_20000\AOA_4\template_medium.cas.h5" in NODE0 mode ...
  Reading mesh ...
      181070 cells,     4 cell zones ...
          36824 mixed cells,  zone id: 2
         108032 mixed cells,  zone id: 4
          27008 mixed cells,  zone id: 12
           9206 mixed cells,  zone id: 11
      309160 faces,    14 face zones ...
          65137 2D interior faces,  zone id: 3
         181145 2D interior faces,  zone id: 5
             42 2D velocity-inlet faces,  zone id: 6
             38 2D pressure-outlet faces,  zone id: 7
             40 2D velocity-inlet faces,  zone id: 8
            458 2D interior faces,  zone id: 9
            456 2D interior faces,  zone id: 10
            228 2D parent-face faces,  zone id: 19
            229 2D parent-face faces,  zone id: 18
             20 2D parent-face faces,  zone id: 17
             19 2D parent-face faces,  zone id: 16
             21 2D parent-face faces,  zone id: 15
          45157 2D parent-face faces,  zone id: 14
          16170 2D parent-face faces,  zone id: 13
      102461 nodes,     1 node zone  ...
  Done.


Building...
     mesh
     materials,
     interface,
     domains,
	mixture
     zones,
	outlet
	inlet
	interior-fluid
	interior-porous
	symmetry
	upper
	lower
	fluid
	porous
WARNING: "Smooth" contours can't be displayed when node-values is set to off. Changing the Coloring type to "Banded".
     parallel,
Done.
OK


Overwrite confirmations (/file/set-batch-options ...)
are on -- will therefore ignore the following journal
Error: invalid command: OK


> 
adjoint/                parallel/               server/
define/                 parametric-study/       solve/
display/                plot/                   surface/
exit                    preferences/            views/
file/                   print-license-usage
mesh/                   report/

> 
adjoint/                parallel/               server/
define/                 parametric-study/       solve/
display/                plot/                   surface/
exit                    preferences/            views/
file/                   print-license-usage
mesh/                   report/

> 
adjoint/                parallel/               server/
define/                 parametric-study/       solve/
display/                plot/                   surface/
exit                    preferences/            views/
file/                   print-license-usage
mesh/                   report/

> ;run simulation
solve/initialize/initialize-flow

> solve/iterate 2000

  iter  continuity  x-velocity  y-velocity           k       omega     time/iter
     1  1.0000e+00  6.7606e-07  2.8205e-05  6.5525e-05  6.0482e-04  0:00:00 1999

 turbulent viscosity limited to viscosity ratio of 1.000000e+05 in 36 cells 
     2  1.0000e+00  7.9174e-05  1.4622e-04  6.1479e-05  1.6357e-03  0:00:00 1998

 turbulent viscosity limited to viscosity ratio of 1.000000e+05 in 65 cells 
     3  3.0488e-01  2.8026e-05  5.2392e-05  5.8085e-05  4.3110e-03  0:33:17 1997

 turbulent viscosity limited to viscosity ratio of 1.000000e+05 in 75 cells 
     4  2.1658e-01  1.1518e-05  3.0987e-05  5.5758e-05  1.3842e-03  0:26:37 1996

 turbulent viscosity limited to viscosity ratio of 1.000000e+05 in 83 cells 
     5  1.5013e-01  6.5339e-06  2.4987e-05  5.2987e-05  2.6205e-04  0:21:17 1995

 turbulent viscosity limited to viscosity ratio of 1.000000e+05 in 85 cells 
     6  1.0953e-01  5.1893e-06  2.2960e-05  5.0498e-05  2.1328e-04  0:17:01 1994

 turbulent viscosity limited to viscosity ratio of 1.000000e+05 in 86 cells 
     7  7.9570e-02  4.4144e-06  2.2170e-05  4.8272e-05  8.7612e-05  0:13:36 1993

 turbulent viscosity limited to viscosity ratio of 1.000000e+05 in 83 cells 
     8  5.5003e-02  3.9874e-06  2.2071e-05  4.6265e-05  7.3312e-05  0:10:53 1992

 turbulent viscosity limited to viscosity ratio of 1.000000e+05 in 80 cells 
     9  3.9038e-02  3.8026e-06  2.2092e-05  4.4511e-05  6.5523e-05  0:15:20 1991

 turbulent viscosity limited to viscosity ratio of 1.000000e+05 in 80 cells 
    10  2.8747e-02  3.7091e-06  2.2064e-05  4.2909e-05  5.9750e-05  0:12:16 1990

 turbulent viscosity limited to viscosity ratio of 1.000000e+05 in 81 cells 
    11  2.2387e-02  3.6252e-06  2.1921e-05  4.1440e-05  5.7500e-05  0:09:48 1989

 turbulent viscosity limited to viscosity ratio of 1.000000e+05 in 78 cells 

  iter  continuity  x-velocity  y-velocity           k       omega     time/iter
    12  1.8679e-02  3.5152e-06  2.1692e-05  4.0088e-05  5.8735e-05  0:07:50 1988

 turbulent viscosity limited to viscosity ratio of 1.000000e+05 in 78 cells 
    13  1.5884e-02  3.4112e-06  2.1484e-05  3.8839e-05  6.4873e-05  0:12:54 1987

 turbulent viscosity limited to viscosity ratio of 1.000000e+05 in 78 cells 
    14  1.3908e-02  3.3260e-06  2.1291e-05  3.7690e-05  6.6823e-05  0:10:19 1986

 turbulent viscosity limited to viscosity ratio of 1.000000e+05 in 76 cells 
    15  1.2792e-02  3.2543e-06  2.1126e-05  3.6628e-05  6.3892e-05  0:08:15 1985

 turbulent viscosity limited to viscosity ratio of 1.000000e+05 in 76 cells 
    16  1.1469e-02  3.2038e-06  2.0989e-05  3.5641e-05  5.8733e-05  0:06:35 1984

 turbulent viscosity limited to viscosity ratio of 1.000000e+05 in 75 cells 
    17  1.0708e-02  3.1605e-06  2.0874e-05  3.4715e-05  5.7956e-05  0:05:16 1983

 turbulent viscosity limited to viscosity ratio of 1.000000e+05 in 76 cells 
    18  1.0048e-02  3.1217e-06  2.0763e-05  3.3850e-05  5.7603e-05  0:04:13 1982

 turbulent viscosity limited to viscosity ratio of 1.000000e+05 in 73 cells 
    19  9.7319e-03  3.0859e-06  2.0648e-05  3.3029e-05  6.0350e-05  0:09:58 1981

 turbulent viscosity limited to viscosity ratio of 1.000000e+05 in 71 cells 
    20  9.9454e-03  3.0535e-06  2.0532e-05  3.2264e-05  5.7766e-05  0:07:58 1980

 turbulent viscosity limited to viscosity ratio of 1.000000e+05 in 73 cells 
    21  9.6930e-03  3.0198e-06  2.0414e-05  3.1539e-05  5.6613e-05  0:06:23 1979

 turbulent viscosity limited to viscosity ratio of 1.000000e+05 in 71 cells 
    22  9.7568e-03  2.9901e-06  2.0300e-05  3.0856e-05  5.3797e-05  0:05:06 1978

 turbulent viscosity limited to viscosity ratio of 1.000000e+05 in 68 cells 

  iter  continuity  x-velocity  y-velocity           k       omega     time/iter
    23  9.6022e-03  2.9615e-06  2.0185e-05  3.0207e-05  5.3238e-05  0:04:05 1977

 turbulent viscosity limited to viscosity ratio of 1.000000e+05 in 66 cells 
    24  9.4320e-03  2.9326e-06  2.0073e-05  2.9592e-05  4.9524e-05  0:09:51 1976

 turbulent viscosity limited to viscosity ratio of 1.000000e+05 in 66 cells 
    25  9.4596e-03  2.9048e-06  1.9962e-05  2.9006e-05  4.6277e-05  0:07:52 1975

 turbulent viscosity limited to viscosity ratio of 1.000000e+05 in 64 cells 
    26  9.5413e-03  2.8806e-06  1.9851e-05  2.8448e-05  4.6649e-05  0:06:18 1974

 turbulent viscosity limited to viscosity ratio of 1.000000e+05 in 63 cells 
    27  9.4941e-03  2.8582e-06  1.9743e-05  2.7917e-05  4.4392e-05  0:05:02 1973

 turbulent viscosity limited to viscosity ratio of 1.000000e+05 in 62 cells 
    28  9.6441e-03  2.8380e-06  1.9633e-05  2.7409e-05  4.3111e-05  0:04:01 1972

 turbulent viscosity limited to viscosity ratio of 1.000000e+05 in 64 cells 
    29  9.6847e-03  2.8176e-06  1.9525e-05  2.6923e-05  4.2835e-05  0:03:13 1971

 turbulent viscosity limited to viscosity ratio of 1.000000e+05 in 64 cells 
    30  9.5777e-03  2.7964e-06  1.9417e-05  2.6459e-05  4.2643e-05  0:09:08 1970

 turbulent viscosity limited to viscosity ratio of 1.000000e+05 in 62 cells 
    31  9.4205e-03  2.7756e-06  1.9312e-05  2.6013e-05  4.1958e-05  0:07:18 1969

 turbulent viscosity limited to viscosity ratio of 1.000000e+05 in 61 cells 
    32  9.7809e-03  2.7542e-06  1.9207e-05  2.5584e-05  4.4473e-05  0:05:51 1968

 turbulent viscosity limited to viscosity ratio of 1.000000e+05 in 59 cells 
    33  9.9207e-03  2.7352e-06  1.9102e-05  2.5172e-05  4.6233e-05  0:04:40 1967

 turbulent viscosity limited to viscosity ratio of 1.000000e+05 in 57 cells 

  iter  continuity  x-velocity  y-velocity           k       omega     time/iter
    34  1.0322e-02  2.7185e-06  1.8999e-05  2.4776e-05  4.8666e-05  0:03:44 1966

 turbulent viscosity limited to viscosity ratio of 1.000000e+05 in 56 cells 
    35  9.9802e-03  2.6992e-06  1.8897e-05  2.4415e-05  5.1681e-05  0:02:59 1965

 turbulent viscosity limited to viscosity ratio of 1.000000e+05 in 56 cells 
    36  1.0456e-02  2.6814e-06  1.8797e-05  2.4066e-05  5.5730e-05  0:08:56 1964

 turbulent viscosity limited to viscosity ratio of 1.000000e+05 in 56 cells 
    37  1.1045e-02  2.6641e-06  1.8696e-05  2.3729e-05  5.5735e-05  0:07:09 1963

 turbulent viscosity limited to viscosity ratio of 1.000000e+05 in 55 cells 
    38  1.1188e-02  2.6431e-06  1.8597e-05  2.3402e-05  5.4363e-05  0:05:43 1962

 turbulent viscosity limited to viscosity ratio of 1.000000e+05 in 54 cells 
    39  1.1206e-02  2.6254e-06  1.8501e-05  2.3087e-05  5.7310e-05  0:04:34 1961

 turbulent viscosity limited to viscosity ratio of 1.000000e+05 in 55 cells 
    40  1.1832e-02  2.6054e-06  1.8400e-05  2.2780e-05  5.7575e-05  0:03:39 1960

 turbulent viscosity limited to viscosity ratio of 1.000000e+05 in 54 cells 
    41  1.2092e-02  2.5831e-06  1.8301e-05  2.2486e-05  5.7277e-05  0:09:27 1959

 turbulent viscosity limited to viscosity ratio of 1.000000e+05 in 54 cells 
    42  1.2194e-02  2.5631e-06  1.8208e-05  2.2198e-05  5.5019e-05  0:07:33 1958

 turbulent viscosity limited to viscosity ratio of 1.000000e+05 in 54 cells 
    43  1.1734e-02  2.5436e-06  1.8112e-05  2.1917e-05  5.3354e-05  0:06:03 1957

 turbulent viscosity limited to viscosity ratio of 1.000000e+05 in 53 cells 
    44  1.1350e-02  2.5269e-06  1.8019e-05  2.1645e-05  5.1922e-05  0:04:50 1956

 turbulent viscosity limited to viscosity ratio of 1.000000e+05 in 54 cells 

  iter  continuity  x-velocity  y-velocity           k       omega     time/iter
    45  1.1445e-02  2.5107e-06  1.7929e-05  2.1379e-05  4.9625e-05  0:03:52 1955

 turbulent viscosity limited to viscosity ratio of 1.000000e+05 in 53 cells 
    46  1.1676e-02  2.4936e-06  1.7842e-05  2.1120e-05  4.5122e-05  0:03:05 1954

 turbulent viscosity limited to viscosity ratio of 1.000000e+05 in 52 cells 
    47  1.2015e-02  2.4774e-06  1.7754e-05  2.0868e-05  4.2882e-05  0:08:59 1953

 turbulent viscosity limited to viscosity ratio of 1.000000e+05 in 52 cells 
    48  1.2038e-02  2.4616e-06  1.7665e-05  2.0623e-05  3.9717e-05  0:07:11 1952

 turbulent viscosity limited to viscosity ratio of 1.000000e+05 in 53 cells 
    49  1.1953e-02  2.4476e-06  1.7576e-05  2.0384e-05  3.7471e-05  0:05:44 1951

 turbulent viscosity limited to viscosity ratio of 1.000000e+05 in 53 cells 
    50  1.2053e-02  2.4326e-06  1.7488e-05  2.0150e-05  3.5998e-05  0:04:35 1950

 turbulent viscosity limited to viscosity ratio of 1.000000e+05 in 52 cells 
    51  1.2077e-02  2.4168e-06  1.7398e-05  1.9925e-05  3.5166e-05  0:03:40 1949

 turbulent viscosity limited to viscosity ratio of 1.000000e+05 in 51 cells 
    52  1.1710e-02  2.4020e-06  1.7310e-05  1.9704e-05  3.4455e-05  0:02:56 1948

 turbulent viscosity limited to viscosity ratio of 1.000000e+05 in 50 cells 
    53  1.1710e-02  2.3878e-06  1.7222e-05  1.9487e-05  3.3583e-05  0:08:50 1947

 turbulent viscosity limited to viscosity ratio of 1.000000e+05 in 50 cells 
    54  1.1780e-02  2.3719e-06  1.7135e-05  1.9284e-05  3.2855e-05  0:07:04 1946

 turbulent viscosity limited to viscosity ratio of 1.000000e+05 in 51 cells 
    55  1.1644e-02  2.3553e-06  1.7047e-05  1.9094e-05  3.2275e-05  0:05:39 1945

 turbulent viscosity limited to viscosity ratio of 1.000000e+05 in 51 cells 

  iter  continuity  x-velocity  y-velocity           k       omega     time/iter
    56  1.1213e-02  2.3402e-06  1.6958e-05  1.8904e-05  3.2220e-05  0:04:31 1944

 turbulent viscosity limited to viscosity ratio of 1.000000e+05 in 51 cells 
    57  1.0858e-02  2.3263e-06  1.6874e-05  1.8705e-05  3.1562e-05  0:03:37 1943

 turbulent viscosity limited to viscosity ratio of 1.000000e+05 in 51 cells 
    58  1.1050e-02  2.3133e-06  1.6789e-05  1.8497e-05  3.0501e-05  0:09:22 1942

 turbulent viscosity limited to viscosity ratio of 1.000000e+05 in 52 cells 
    59  1.1119e-02  2.2984e-06  1.6705e-05  1.8284e-05  3.0739e-05  0:07:29 1941

 turbulent viscosity limited to viscosity ratio of 1.000000e+05 in 52 cells 
    60  1.0822e-02  2.2846e-06  1.6623e-05  1.8115e-05  3.0576e-05  0:05:59 1940

 turbulent viscosity limited to viscosity ratio of 1.000000e+05 in 52 cells 
    61  1.0631e-02  2.2697e-06  1.6540e-05  1.7913e-05  2.9007e-05  0:04:47 1939

 turbulent viscosity limited to viscosity ratio of 1.000000e+05 in 51 cells 
    62  1.0727e-02  2.2563e-06  1.6457e-05  1.7729e-05  2.8361e-05  0:03:50 1938

 turbulent viscosity limited to viscosity ratio of 1.000000e+05 in 51 cells 
    63  1.0854e-02  2.2443e-06  1.6375e-05  1.7569e-05  2.8975e-05  0:09:31 1937

 turbulent viscosity limited to viscosity ratio of 1.000000e+05 in 54 cells 
    64  1.1223e-02  2.2294e-06  1.6296e-05  1.7419e-05  2.7297e-05  0:07:37 1936

 turbulent viscosity limited to viscosity ratio of 1.000000e+05 in 54 cells 
    65  1.1582e-02  2.2183e-06  1.6216e-05  1.7278e-05  2.7564e-05  0:06:05 1935

 turbulent viscosity limited to viscosity ratio of 1.000000e+05 in 54 cells 
    66  1.1877e-02  2.2071e-06  1.6138e-05  1.7113e-05  2.8003e-05  0:04:52 1934

 turbulent viscosity limited to viscosity ratio of 1.000000e+05 in 55 cells 

  iter  continuity  x-velocity  y-velocity           k       omega     time/iter
    67  1.1786e-02  2.1966e-06  1.6058e-05  1.6950e-05  2.8619e-05  0:03:53 1933

 turbulent viscosity limited to viscosity ratio of 1.000000e+05 in 53 cells 
    68  1.1896e-02  2.1846e-06  1.5976e-05  1.6758e-05  2.4831e-05  0:03:07 1932

 turbulent viscosity limited to viscosity ratio of 1.000000e+05 in 53 cells 
    69  1.2120e-02  2.1692e-06  1.5899e-05  1.6611e-05  2.5738e-05  0:08:55 1931

 turbulent viscosity limited to viscosity ratio of 1.000000e+05 in 54 cells 
    70  1.2317e-02  2.1590e-06  1.5825e-05  1.6479e-05  2.6935e-05  0:07:08 1930

 turbulent viscosity limited to viscosity ratio of 1.000000e+05 in 54 cells 
    71  1.2437e-02  2.1483e-06  1.5753e-05  1.6333e-05  2.7924e-05  0:05:42 1929

 turbulent viscosity limited to viscosity ratio of 1.000000e+05 in 55 cells 
    72  1.2867e-02  2.1375e-06  1.5671e-05  1.6137e-05  2.6477e-05  0:04:34 1928

 turbulent viscosity limited to viscosity ratio of 1.000000e+05 in 56 cells 
    73  1.2867e-02  2.1254e-06  1.5591e-05  1.5971e-05  2.5550e-05  0:03:39 1927

 turbulent viscosity limited to viscosity ratio of 1.000000e+05 in 56 cells 
    74  1.2751e-02  2.1116e-06  1.5515e-05  1.5819e-05  2.4604e-05  0:09:20 1926

 turbulent viscosity limited to viscosity ratio of 1.000000e+05 in 57 cells 
    75  1.2640e-02  2.1003e-06  1.5441e-05  1.5686e-05  2.3746e-05  0:07:28 1925

 turbulent viscosity limited to viscosity ratio of 1.000000e+05 in 59 cells 
    76  1.2572e-02  2.0899e-06  1.5370e-05  1.5565e-05  2.4666e-05  0:05:58 1924

 turbulent viscosity limited to viscosity ratio of 1.000000e+05 in 60 cells 
    77  1.2661e-02  2.0830e-06  1.5303e-05  1.5431e-05  2.5485e-05  0:04:46 1923

 turbulent viscosity limited to viscosity ratio of 1.000000e+05 in 61 cells 

  iter  continuity  x-velocity  y-velocity           k       omega     time/iter
    78  1.2438e-02  2.0731e-06  1.5225e-05  1.5257e-05  2.4118e-05  0:03:49 1922

 turbulent viscosity limited to viscosity ratio of 1.000000e+05 in 61 cells 
    79  1.2265e-02  2.0621e-06  1.5150e-05  1.5106e-05  2.2009e-05  0:03:03 1921

 turbulent viscosity limited to viscosity ratio of 1.000000e+05 in 61 cells 
    80  1.2045e-02  2.0521e-06  1.5077e-05  1.4952e-05  2.0875e-05  0:08:50 1920

 turbulent viscosity limited to viscosity ratio of 1.000000e+05 in 61 cells 
    81  1.1685e-02  2.0424e-06  1.5001e-05  1.4799e-05  1.9915e-05  0:07:04 1919

 turbulent viscosity limited to viscosity ratio of 1.000000e+05 in 61 cells 
    82  1.1431e-02  2.0290e-06  1.4928e-05  1.4644e-05  1.9108e-05  0:05:39 1918

 turbulent viscosity limited to viscosity ratio of 1.000000e+05 in 61 cells 
    83  1.1571e-02  2.0169e-06  1.4855e-05  1.4498e-05  1.8320e-05  0:04:31 1917

 turbulent viscosity limited to viscosity ratio of 1.000000e+05 in 62 cells 
    84  1.1590e-02  2.0049e-06  1.4784e-05  1.4360e-05  1.7639e-05  0:03:37 1916

 turbulent viscosity limited to viscosity ratio of 1.000000e+05 in 66 cells 
    85  1.1601e-02  1.9930e-06  1.4714e-05  1.4226e-05  1.6940e-05  0:02:53 1915

 turbulent viscosity limited to viscosity ratio of 1.000000e+05 in 67 cells 
    86  1.1448e-02  1.9810e-06  1.4645e-05  1.4098e-05  1.5958e-05  0:08:41 1914

 turbulent viscosity limited to viscosity ratio of 1.000000e+05 in 68 cells 
    87  1.1145e-02  1.9698e-06  1.4575e-05  1.3979e-05  1.5865e-05  0:06:57 1913

 turbulent viscosity limited to viscosity ratio of 1.000000e+05 in 69 cells 
    88  1.1237e-02  1.9589e-06  1.4507e-05  1.3862e-05  1.6186e-05  0:05:33 1912

 turbulent viscosity limited to viscosity ratio of 1.000000e+05 in 71 cells 

  iter  continuity  x-velocity  y-velocity           k       omega     time/iter
    89  1.1293e-02  1.9486e-06  1.4444e-05  1.3746e-05  1.6489e-05  0:04:27 1911

 turbulent viscosity limited to viscosity ratio of 1.000000e+05 in 72 cells 
    90  1.1142e-02  1.9381e-06  1.4383e-05  1.3639e-05  1.6455e-05  0:03:33 1910

 turbulent viscosity limited to viscosity ratio of 1.000000e+05 in 72 cells 
    91  1.1088e-02  1.9300e-06  1.4310e-05  1.3482e-05  1.5900e-05  0:02:50 1909

 turbulent viscosity limited to viscosity ratio of 1.000000e+05 in 76 cells 
    92  1.1050e-02  1.9197e-06  1.4245e-05  1.3366e-05  1.5207e-05  0:08:38 1908

 turbulent viscosity limited to viscosity ratio of 1.000000e+05 in 77 cells 
    93  1.0906e-02  1.9094e-06  1.4179e-05  1.3272e-05  1.5198e-05  0:06:54 1907

 turbulent viscosity limited to viscosity ratio of 1.000000e+05 in 78 cells 
    94  1.0638e-02  1.9052e-06  1.4116e-05  1.3216e-05  1.5421e-05  0:05:31 1906

 turbulent viscosity limited to viscosity ratio of 1.000000e+05 in 78 cells 
    95  1.0942e-02  1.9044e-06  1.4053e-05  1.3165e-05  1.6052e-05  0:04:25 1905

 turbulent viscosity limited to viscosity ratio of 1.000000e+05 in 78 cells 
    96  1.1337e-02  1.8945e-06  1.3993e-05  1.3038e-05  1.4503e-05  0:03:32 1904

 turbulent viscosity limited to viscosity ratio of 1.000000e+05 in 81 cells 
    97  1.1088e-02  1.8821e-06  1.3935e-05  1.2945e-05  1.4271e-05  0:02:49 1903

 turbulent viscosity limited to viscosity ratio of 1.000000e+05 in 84 cells 
    98  1.0872e-02  1.8668e-06  1.3872e-05  1.2795e-05  1.4296e-05  0:08:36 1902

 turbulent viscosity limited to viscosity ratio of 1.000000e+05 in 85 cells 
    99  1.0734e-02  1.8679e-06  1.3811e-05  1.2743e-05  1.5058e-05  0:06:52 1901

 turbulent viscosity limited to viscosity ratio of 1.000000e+05 in 85 cells 

  iter  continuity  x-velocity  y-velocity           k       omega     time/iter
   100  1.0883e-02  1.8656e-06  1.3755e-05  1.2743e-05  1.4540e-05  0:05:30 1900

 turbulent viscosity limited to viscosity ratio of 1.000000e+05 in 88 cells 
   101  1.1146e-02  1.8696e-06  1.3699e-05  1.2655e-05  1.5291e-05  0:04:24 1899

 turbulent viscosity limited to viscosity ratio of 1.000000e+05 in 89 cells 
   102  1.1346e-02  1.8602e-06  1.3650e-05  1.2466e-05  1.4143e-05  0:09:50 1898

 turbulent viscosity limited to viscosity ratio of 1.000000e+05 in 91 cells 
   103  1.1226e-02  1.8367e-06  1.3578e-05  1.2302e-05  1.3402e-05  0:07:52 1897

 turbulent viscosity limited to viscosity ratio of 1.000000e+05 in 92 cells 
   104  1.0511e-02  1.8273e-06  1.3503e-05  1.2190e-05  1.2806e-05  0:12:37 1896

 turbulent viscosity limited to viscosity ratio of 1.000000e+05 in 93 cells 
   105  1.0399e-02  1.8088e-06  1.3432e-05  1.2128e-05  1.2944e-05  0:10:05 1895

 turbulent viscosity limited to viscosity ratio of 1.000000e+05 in 93 cells 
   106  1.0259e-02  1.8042e-06  1.3383e-05  1.2093e-05  1.3334e-05  0:08:04 1894

 turbulent viscosity limited to viscosity ratio of 1.000000e+05 in 94 cells 
   107  1.0332e-02  1.8051e-06  1.3349e-05  1.2016e-05  1.3808e-05  0:12:45 1893

 turbulent viscosity limited to viscosity ratio of 1.000000e+05 in 95 cells 
   108  1.0002e-02  1.7848e-06  1.3267e-05  1.1842e-05  1.2722e-05  0:10:12 1892

 turbulent viscosity limited to viscosity ratio of 1.000000e+05 in 94 cells 
   109  9.4471e-03  1.7677e-06  1.3194e-05  1.1729e-05  1.2648e-05  0:08:09 1891

 turbulent viscosity limited to viscosity ratio of 1.000000e+05 in 93 cells 
   110  9.0812e-03  1.7520e-06  1.3122e-05  1.1664e-05  1.2580e-05  0:06:31 1890

 turbulent viscosity limited to viscosity ratio of 1.000000e+05 in 93 cells 

  iter  continuity  x-velocity  y-velocity           k       omega     time/iter
   111  9.1068e-03  1.7426e-06  1.3071e-05  1.1610e-05  1.2593e-05  0:11:31 1889

 turbulent viscosity limited to viscosity ratio of 1.000000e+05 in 91 cells 
   112  9.0982e-03  1.7358e-06  1.3019e-05  1.1538e-05  1.2790e-05  0:09:12 1888

 turbulent viscosity limited to viscosity ratio of 1.000000e+05 in 90 cells 
   113  9.0755e-03  1.7312e-06  1.2969e-05  1.1422e-05  1.2109e-05  0:07:22 1887

 turbulent viscosity limited to viscosity ratio of 1.000000e+05 in 89 cells 
   114  8.7938e-03  1.7259e-06  1.2899e-05  1.1328e-05  1.2012e-05  0:12:10 1886

 turbulent viscosity limited to viscosity ratio of 1.000000e+05 in 88 cells 
   115  8.7103e-03  1.7106e-06  1.2840e-05  1.1245e-05  1.1943e-05  0:09:44 1885

 turbulent viscosity limited to viscosity ratio of 1.000000e+05 in 88 cells 
   116  8.3277e-03  1.6952e-06  1.2778e-05  1.1166e-05  1.1929e-05  0:07:47 1884

 turbulent viscosity limited to viscosity ratio of 1.000000e+05 in 88 cells 
   117  8.2143e-03  1.6880e-06  1.2718e-05  1.1090e-05  1.1957e-05  0:12:30 1883

 turbulent viscosity limited to viscosity ratio of 1.000000e+05 in 89 cells 
   118  7.9829e-03  1.6810e-06  1.2662e-05  1.1015e-05  1.2149e-05  0:10:00 1882

 turbulent viscosity limited to viscosity ratio of 1.000000e+05 in 89 cells 
   119  7.8977e-03  1.6730e-06  1.2598e-05  1.0928e-05  1.1788e-05  0:07:59 1881

 turbulent viscosity limited to viscosity ratio of 1.000000e+05 in 88 cells 
   120  7.8949e-03  1.6634e-06  1.2541e-05  1.0848e-05  1.1654e-05  0:06:23 1880

 turbulent viscosity limited to viscosity ratio of 1.000000e+05 in 88 cells 
   121  7.8180e-03  1.6536e-06  1.2484e-05  1.0775e-05  1.1569e-05  0:11:22 1879

 turbulent viscosity limited to viscosity ratio of 1.000000e+05 in 87 cells 

  iter  continuity  x-velocity  y-velocity           k       omega     time/iter
   122  7.6464e-03  1.6448e-06  1.2430e-05  1.0703e-05  1.1531e-05  0:09:06 1878

 turbulent viscosity limited to viscosity ratio of 1.000000e+05 in 86 cells 
   123  7.5487e-03  1.6369e-06  1.2375e-05  1.0633e-05  1.1485e-05  0:07:16 1877

 turbulent viscosity limited to viscosity ratio of 1.000000e+05 in 86 cells 
   124  7.4843e-03  1.6295e-06  1.2321e-05  1.0563e-05  1.1444e-05  0:12:04 1876

 turbulent viscosity limited to viscosity ratio of 1.000000e+05 in 86 cells 
   125  7.4551e-03  1.6221e-06  1.2267e-05  1.0495e-05  1.1410e-05  0:09:39 1875

 turbulent viscosity limited to viscosity ratio of 1.000000e+05 in 87 cells 
   126  7.4357e-03  1.6154e-06  1.2213e-05  1.0426e-05  1.1382e-05  0:07:43 1874

 turbulent viscosity limited to viscosity ratio of 1.000000e+05 in 87 cells 
   127  7.4522e-03  1.6089e-06  1.2159e-05  1.0358e-05  1.1350e-05  0:12:25 1873

 turbulent viscosity limited to viscosity ratio of 1.000000e+05 in 87 cells 
   128  7.3351e-03  1.6006e-06  1.2104e-05  1.0290e-05  1.1334e-05  0:09:55 1872

 turbulent viscosity limited to viscosity ratio of 1.000000e+05 in 87 cells 
   129  7.2479e-03  1.5914e-06  1.2050e-05  1.0223e-05  1.1328e-05  0:07:56 1871

 turbulent viscosity limited to viscosity ratio of 1.000000e+05 in 87 cells 
   130  7.1329e-03  1.5825e-06  1.1996e-05  1.0157e-05  1.1208e-05  0:12:35 1870

 turbulent viscosity limited to viscosity ratio of 1.000000e+05 in 86 cells 
   131  6.8362e-03  1.5744e-06  1.1942e-05  1.0091e-05  1.1153e-05  0:10:03 1869

 turbulent viscosity limited to viscosity ratio of 1.000000e+05 in 88 cells 
   132  6.7054e-03  1.5651e-06  1.1887e-05  1.0025e-05  1.1114e-05  0:08:02 1868

 turbulent viscosity limited to viscosity ratio of 1.000000e+05 in 87 cells 

  iter  continuity  x-velocity  y-velocity           k       omega     time/iter
   133  6.5803e-03  1.5554e-06  1.1832e-05  9.9605e-06  1.1068e-05  0:06:26 1867

 turbulent viscosity limited to viscosity ratio of 1.000000e+05 in 87 cells 
   134  6.4663e-03  1.5493e-06  1.1786e-05  9.8959e-06  1.1032e-05  0:11:22 1866

 turbulent viscosity limited to viscosity ratio of 1.000000e+05 in 88 cells 
   135  6.5840e-03  1.5470e-06  1.1741e-05  9.8322e-06  1.0969e-05  0:09:05 1865

 turbulent viscosity limited to viscosity ratio of 1.000000e+05 in 88 cells 
   136  6.7202e-03  1.5401e-06  1.1686e-05  9.7682e-06  1.0923e-05  0:07:16 1864

 turbulent viscosity limited to viscosity ratio of 1.000000e+05 in 87 cells 
   137  6.7138e-03  1.5329e-06  1.1633e-05  9.7050e-06  1.0880e-05  0:12:01 1863

 turbulent viscosity limited to viscosity ratio of 1.000000e+05 in 86 cells 
   138  6.6294e-03  1.5235e-06  1.1578e-05  9.6421e-06  1.0841e-05  0:09:37 1862

 turbulent viscosity limited to viscosity ratio of 1.000000e+05 in 86 cells 
   139  6.6222e-03  1.5143e-06  1.1525e-05  9.5797e-06  1.0809e-05  0:07:41 1861

 turbulent viscosity limited to viscosity ratio of 1.000000e+05 in 86 cells 
   140  6.5139e-03  1.5054e-06  1.1473e-05  9.5178e-06  1.0785e-05  0:12:21 1860

 turbulent viscosity limited to viscosity ratio of 1.000000e+05 in 86 cells 
   141  6.4457e-03  1.4971e-06  1.1421e-05  9.4562e-06  1.0765e-05  0:09:52 1859

 turbulent viscosity limited to viscosity ratio of 1.000000e+05 in 86 cells 
   142  6.2951e-03  1.4877e-06  1.1370e-05  9.3950e-06  1.0757e-05  0:07:53 1858

 turbulent viscosity limited to viscosity ratio of 1.000000e+05 in 86 cells 
   143  6.2098e-03  1.4796e-06  1.1320e-05  9.3342e-06  1.0700e-05  0:06:19 1857

 turbulent viscosity limited to viscosity ratio of 1.000000e+05 in 85 cells 

  iter  continuity  x-velocity  y-velocity           k       omega     time/iter
   144  6.0894e-03  1.4716e-06  1.1268e-05  9.2739e-06  1.0675e-05  0:11:14 1856

 turbulent viscosity limited to viscosity ratio of 1.000000e+05 in 84 cells 
   145  5.9364e-03  1.4635e-06  1.1219e-05  9.2139e-06  1.0680e-05  0:08:59 1855

 turbulent viscosity limited to viscosity ratio of 1.000000e+05 in 85 cells 
   146  5.9486e-03  1.4560e-06  1.1170e-05  9.1543e-06  1.0559e-05  0:07:11 1854

 turbulent viscosity limited to viscosity ratio of 1.000000e+05 in 85 cells 
   147  5.9613e-03  1.4486e-06  1.1123e-05  9.0950e-06  1.0514e-05  0:11:55 1853

 turbulent viscosity limited to viscosity ratio of 1.000000e+05 in 84 cells 
   148  5.8529e-03  1.4422e-06  1.1074e-05  9.0362e-06  1.0473e-05  0:09:32 1852

 turbulent viscosity limited to viscosity ratio of 1.000000e+05 in 82 cells 
   149  5.7527e-03  1.4361e-06  1.1028e-05  8.9779e-06  1.0435e-05  0:13:47 1851

 turbulent viscosity limited to viscosity ratio of 1.000000e+05 in 81 cells 
   150  5.7331e-03  1.4304e-06  1.0978e-05  8.9201e-06  1.0396e-05  0:11:02 1850

 turbulent viscosity limited to viscosity ratio of 1.000000e+05 in 79 cells 
   151  5.7016e-03  1.4246e-06  1.0933e-05  8.8628e-06  1.0361e-05  0:08:49 1849

 turbulent viscosity limited to viscosity ratio of 1.000000e+05 in 78 cells 
   152  5.6254e-03  1.4181e-06  1.0883e-05  8.8060e-06  1.0326e-05  0:07:03 1848

 turbulent viscosity limited to viscosity ratio of 1.000000e+05 in 78 cells 
   153  5.6838e-03  1.4115e-06  1.0839e-05  8.7498e-06  1.0297e-05  0:11:48 1847

 turbulent viscosity limited to viscosity ratio of 1.000000e+05 in 79 cells 
   154  5.6054e-03  1.4037e-06  1.0794e-05  8.6942e-06  1.0282e-05  0:09:26 1846

 turbulent viscosity limited to viscosity ratio of 1.000000e+05 in 79 cells 

  iter  continuity  x-velocity  y-velocity           k       omega     time/iter
   155  5.7800e-03  1.4001e-06  1.0754e-05  8.6391e-06  1.0297e-05  0:07:32 1845

 turbulent viscosity limited to viscosity ratio of 1.000000e+05 in 79 cells 
   156  5.6168e-03  1.3994e-06  1.0711e-05  8.5823e-06  1.0405e-05  0:12:10 1844

 turbulent viscosity limited to viscosity ratio of 1.000000e+05 in 78 cells 
   157  5.8441e-03  1.3971e-06  1.0670e-05  8.5246e-06  1.0108e-05  0:09:44 1843

 turbulent viscosity limited to viscosity ratio of 1.000000e+05 in 78 cells 
   158  5.6922e-03  1.3883e-06  1.0627e-05  8.4693e-06  1.0073e-05  0:07:47 1842

 turbulent viscosity limited to viscosity ratio of 1.000000e+05 in 78 cells 
   159  5.6879e-03  1.3839e-06  1.0584e-05  8.4147e-06  1.0008e-05  0:06:13 1841

 turbulent viscosity limited to viscosity ratio of 1.000000e+05 in 79 cells 
   160  5.4632e-03  1.3754e-06  1.0535e-05  8.3606e-06  9.9422e-06  0:11:07 1840

 turbulent viscosity limited to viscosity ratio of 1.000000e+05 in 78 cells 
   161  5.6329e-03  1.3727e-06  1.0491e-05  8.3068e-06  9.7969e-06  0:08:53 1839

 turbulent viscosity limited to viscosity ratio of 1.000000e+05 in 77 cells 
   162  5.5265e-03  1.3667e-06  1.0450e-05  8.2535e-06  9.7154e-06  0:07:06 1838

 turbulent viscosity limited to viscosity ratio of 1.000000e+05 in 76 cells 
   163  5.7066e-03  1.3644e-06  1.0408e-05  8.2006e-06  9.5800e-06  0:11:48 1837

 turbulent viscosity limited to viscosity ratio of 1.000000e+05 in 77 cells 
   164  5.7415e-03  1.3595e-06  1.0371e-05  8.1481e-06  9.7790e-06  0:09:26 1836

 turbulent viscosity limited to viscosity ratio of 1.000000e+05 in 77 cells 
   165  5.9069e-03  1.3572e-06  1.0332e-05  8.0960e-06  1.0283e-05  0:07:33 1835

 turbulent viscosity limited to viscosity ratio of 1.000000e+05 in 76 cells 

  iter  continuity  x-velocity  y-velocity           k       omega     time/iter
   166  5.9724e-03  1.3512e-06  1.0294e-05  8.0450e-06  1.1064e-05  0:12:09 1834

 turbulent viscosity limited to viscosity ratio of 1.000000e+05 in 76 cells 
   167  6.2739e-03  1.3497e-06  1.0256e-05  7.9939e-06  1.0961e-05  0:09:43 1833

 turbulent viscosity limited to viscosity ratio of 1.000000e+05 in 75 cells 
   168  6.1972e-03  1.3410e-06  1.0214e-05  7.9433e-06  1.0960e-05  0:07:46 1832

 turbulent viscosity limited to viscosity ratio of 1.000000e+05 in 75 cells 
   169  6.6266e-03  1.3351e-06  1.0169e-05  7.8936e-06  1.0979e-05  0:06:13 1831

 turbulent viscosity limited to viscosity ratio of 1.000000e+05 in 75 cells 
   170  6.6136e-03  1.3344e-06  1.0124e-05  7.8442e-06  1.0822e-05  0:11:04 1830

 turbulent viscosity limited to viscosity ratio of 1.000000e+05 in 76 cells 
   171  6.7783e-03  1.3275e-06  1.0072e-05  7.7949e-06  1.0790e-05  0:08:51 1829

 turbulent viscosity limited to viscosity ratio of 1.000000e+05 in 76 cells 
   172  7.0064e-03  1.3272e-06  1.0025e-05  7.7447e-06  1.0282e-05  0:07:04 1828

 turbulent viscosity limited to viscosity ratio of 1.000000e+05 in 77 cells 
   173  6.6495e-03  1.3103e-06  9.9726e-06  7.6946e-06  1.0000e-05  0:11:45 1827

 turbulent viscosity limited to viscosity ratio of 1.000000e+05 in 77 cells 
   174  6.3087e-03  1.3041e-06  9.9314e-06  7.6458e-06  9.8993e-06  0:09:23 1826

 turbulent viscosity limited to viscosity ratio of 1.000000e+05 in 75 cells 
   175  6.1111e-03  1.2931e-06  9.8818e-06  7.5978e-06  9.8944e-06  0:07:31 1825

 turbulent viscosity limited to viscosity ratio of 1.000000e+05 in 76 cells 
   176  5.9002e-03  1.2910e-06  9.8408e-06  7.5502e-06  1.3001e-05  0:12:05 1824

 turbulent viscosity limited to viscosity ratio of 1.000000e+05 in 79 cells 

  iter  continuity  x-velocity  y-velocity           k       omega     time/iter
   177  5.7826e-03  1.2929e-06  9.7963e-06  7.5044e-06  9.8884e-06  0:09:40 1823

 turbulent viscosity limited to viscosity ratio of 1.000000e+05 in 80 cells 
   178  5.6929e-03  1.2854e-06  9.7573e-06  7.4573e-06  9.7059e-06  0:07:44 1822

 turbulent viscosity limited to viscosity ratio of 1.000000e+05 in 81 cells 
   179  5.6144e-03  1.2733e-06  9.7172e-06  7.4100e-06  9.9167e-06  0:06:11 1821

 turbulent viscosity limited to viscosity ratio of 1.000000e+05 in 83 cells 
   180  5.2839e-03  1.2623e-06  9.6709e-06  7.3644e-06  9.8553e-06  0:11:00 1820

 turbulent viscosity limited to viscosity ratio of 1.000000e+05 in 83 cells 
   181  5.2030e-03  1.2537e-06  9.6244e-06  7.3192e-06  9.5714e-06  0:08:48 1819

 turbulent viscosity limited to viscosity ratio of 1.000000e+05 in 83 cells 
   182  5.0671e-03  1.2494e-06  9.5804e-06  7.2735e-06  9.4741e-06  0:07:02 1818

 turbulent viscosity limited to viscosity ratio of 1.000000e+05 in 83 cells 
   183  5.0364e-03  1.2367e-06  9.5335e-06  7.2292e-06  9.5166e-06  0:11:41 1817

 turbulent viscosity limited to viscosity ratio of 1.000000e+05 in 82 cells 
   184  5.4020e-03  1.2378e-06  9.4968e-06  7.1853e-06  9.4223e-06  0:09:20 1816

 turbulent viscosity limited to viscosity ratio of 1.000000e+05 in 83 cells 
   185  5.2000e-03  1.2248e-06  9.4554e-06  7.1415e-06  9.9428e-06  0:07:28 1815

 turbulent viscosity limited to viscosity ratio of 1.000000e+05 in 83 cells 
   186  5.9406e-03  1.2198e-06  9.4186e-06  7.0978e-06  9.9734e-06  0:12:01 1814

 turbulent viscosity limited to viscosity ratio of 1.000000e+05 in 85 cells 
   187  5.5563e-03  1.2201e-06  9.3793e-06  7.0555e-06  9.8597e-06  0:09:37 1813

 turbulent viscosity limited to viscosity ratio of 1.000000e+05 in 85 cells 

  iter  continuity  x-velocity  y-velocity           k       omega     time/iter
   188  5.9624e-03  1.2107e-06  9.3391e-06  7.0132e-06  9.7273e-06  0:07:41 1812

 turbulent viscosity limited to viscosity ratio of 1.000000e+05 in 84 cells 
   189  5.5273e-03  1.2163e-06  9.2951e-06  6.9734e-06  9.8229e-06  0:06:09 1811

 turbulent viscosity limited to viscosity ratio of 1.000000e+05 in 84 cells 
   190  6.0042e-03  1.2016e-06  9.2509e-06  6.9320e-06  9.7227e-06  0:10:57 1810

 turbulent viscosity limited to viscosity ratio of 1.000000e+05 in 85 cells 
   191  5.2599e-03  1.2001e-06  9.2135e-06  6.8903e-06  9.6114e-06  0:08:45 1809

 turbulent viscosity limited to viscosity ratio of 1.000000e+05 in 85 cells 
   192  5.6108e-03  1.1847e-06  9.1674e-06  6.8480e-06  9.5659e-06  0:07:00 1808

 turbulent viscosity limited to viscosity ratio of 1.000000e+05 in 85 cells 
   193  4.8893e-03  1.1779e-06  9.1332e-06  6.8071e-06  9.3467e-06  0:11:37 1807

 turbulent viscosity limited to viscosity ratio of 1.000000e+05 in 86 cells 
   194  5.2140e-03  1.1703e-06  9.0870e-06  6.7672e-06  9.2969e-06  0:09:17 1806

 turbulent viscosity limited to viscosity ratio of 1.000000e+05 in 86 cells 
   195  4.7694e-03  1.1664e-06  9.0536e-06  6.7292e-06  9.3023e-06  0:13:27 1805

 turbulent viscosity limited to viscosity ratio of 1.000000e+05 in 84 cells 
   196  5.1237e-03  1.1576e-06  9.0064e-06  6.6909e-06  9.2806e-06  0:10:45 1804

 turbulent viscosity limited to viscosity ratio of 1.000000e+05 in 84 cells 
   197  4.5405e-03  1.1555e-06  8.9717e-06  6.6532e-06  9.3629e-06  0:08:36 1803

 turbulent viscosity limited to viscosity ratio of 1.000000e+05 in 83 cells 
   198  4.9751e-03  1.1433e-06  8.9282e-06  6.6144e-06  9.3176e-06  0:06:52 1802

 turbulent viscosity limited to viscosity ratio of 1.000000e+05 in 83 cells 

  iter  continuity  x-velocity  y-velocity           k       omega     time/iter
   199  4.4330e-03  1.1350e-06  8.8933e-06  6.5752e-06  9.2004e-06  0:11:30 1801

 turbulent viscosity limited to viscosity ratio of 1.000000e+05 in 84 cells 
   200  4.6756e-03  1.1288e-06  8.8492e-06  6.5377e-06  9.1457e-06  0:09:12 1800

 turbulent viscosity limited to viscosity ratio of 1.000000e+05 in 82 cells 
   201  4.2631e-03  1.1451e-06  8.8186e-06  6.5140e-06  1.0926e-05  0:07:21 1799

 turbulent viscosity limited to viscosity ratio of 1.000000e+05 in 80 cells 
   202  6.3564e-03  1.1326e-06  8.7969e-06  6.4654e-06  1.1168e-05  0:11:52 1798

 turbulent viscosity limited to viscosity ratio of 1.000000e+05 in 81 cells 
   203  5.0595e-03  1.1325e-06  8.7754e-06  6.4305e-06  1.1094e-05  0:09:29 1797

 turbulent viscosity limited to viscosity ratio of 1.000000e+05 in 79 cells 
   204  5.2894e-03  1.1292e-06  8.7156e-06  6.4017e-06  1.0404e-05  0:07:35 1796

 turbulent viscosity limited to viscosity ratio of 1.000000e+05 in 77 cells 
   205  5.4309e-03  1.1104e-06  8.6803e-06  6.3626e-06  1.8764e-05  0:12:03 1795

 turbulent viscosity limited to viscosity ratio of 1.000000e+05 in 77 cells 
   206  4.8389e-03  1.1024e-06  8.6370e-06  6.3339e-06  1.2655e-05  0:09:38 1794

 turbulent viscosity limited to viscosity ratio of 1.000000e+05 in 76 cells 
   207  4.8878e-03  1.1140e-06  8.5983e-06  6.2977e-06  1.0826e-05  0:07:42 1793

 turbulent viscosity limited to viscosity ratio of 1.000000e+05 in 76 cells 
   208  5.0728e-03  1.0966e-06  8.5655e-06  6.2577e-06  1.0190e-05  0:06:10 1792

 turbulent viscosity limited to viscosity ratio of 1.000000e+05 in 76 cells 
   209  4.1789e-03  1.0830e-06  8.5171e-06  6.2225e-06  1.2802e-05  0:10:54 1791

 turbulent viscosity limited to viscosity ratio of 1.000000e+05 in 76 cells 

  iter  continuity  x-velocity  y-velocity           k       omega     time/iter
   210  4.3115e-03  1.0880e-06  8.4803e-06  6.1945e-06  1.0508e-05  0:08:43 1790

 turbulent viscosity limited to viscosity ratio of 1.000000e+05 in 75 cells 
   211  4.6400e-03  1.0747e-06  8.4482e-06  6.1577e-06  9.9857e-06  0:06:58 1789

 turbulent viscosity limited to viscosity ratio of 1.000000e+05 in 76 cells 
   212  3.8479e-03  1.0613e-06  8.4074e-06  6.1251e-06  1.1338e-05  0:11:32 1788

 turbulent viscosity limited to viscosity ratio of 1.000000e+05 in 74 cells 
   213  4.1648e-03  1.0654e-06  8.3667e-06  6.0983e-06  1.0577e-05  0:09:13 1787

 turbulent viscosity limited to viscosity ratio of 1.000000e+05 in 75 cells 
   214  4.4584e-03  1.0555e-06  8.3362e-06  6.0652e-06  1.0166e-05  0:07:22 1786

 turbulent viscosity limited to viscosity ratio of 1.000000e+05 in 77 cells 
   215  3.8791e-03  1.0440e-06  8.2986e-06  6.0329e-06  1.2249e-05  0:11:51 1785

 turbulent viscosity limited to viscosity ratio of 1.000000e+05 in 74 cells 
   216  4.2649e-03  1.0462e-06  8.2598e-06  6.0037e-06  1.0538e-05  0:09:28 1784

 turbulent viscosity limited to viscosity ratio of 1.000000e+05 in 75 cells 
   217  4.4762e-03  1.0393e-06  8.2249e-06  5.9701e-06  1.0055e-05  0:07:34 1783

 turbulent viscosity limited to viscosity ratio of 1.000000e+05 in 75 cells 
   218  3.8953e-03  1.0250e-06  8.1897e-06  5.9395e-06  1.1476e-05  0:06:03 1782

 turbulent viscosity limited to viscosity ratio of 1.000000e+05 in 74 cells 
   219  3.9962e-03  1.0263e-06  8.1522e-06  5.9136e-06  1.0253e-05  0:10:47 1781

 turbulent viscosity limited to viscosity ratio of 1.000000e+05 in 75 cells 
   220  4.2678e-03  1.0202e-06  8.1194e-06  5.8831e-06  9.4663e-06  0:08:37 1780

 turbulent viscosity limited to viscosity ratio of 1.000000e+05 in 76 cells 

  iter  continuity  x-velocity  y-velocity           k       omega     time/iter
   221  3.6896e-03  1.0089e-06  8.0839e-06  5.8528e-06  1.1025e-05  0:06:53 1779

 turbulent viscosity limited to viscosity ratio of 1.000000e+05 in 73 cells 
   222  3.8344e-03  1.0072e-06  8.0470e-06  5.8270e-06  9.6418e-06  0:11:26 1778

 turbulent viscosity limited to viscosity ratio of 1.000000e+05 in 72 cells 
   223  4.0017e-03  1.0024e-06  8.0105e-06  5.7955e-06  9.2930e-06  0:09:09 1777

 turbulent viscosity limited to viscosity ratio of 1.000000e+05 in 72 cells 
   224  3.5497e-03  9.9297e-07  7.9767e-06  5.7671e-06  1.0715e-05  0:07:19 1776

 turbulent viscosity limited to viscosity ratio of 1.000000e+05 in 70 cells 
   225  3.7063e-03  9.9032e-07  7.9417e-06  5.7433e-06  9.4751e-06  0:11:46 1775

 turbulent viscosity limited to viscosity ratio of 1.000000e+05 in 65 cells 
   226  3.9396e-03  9.8796e-07  7.9068e-06  5.7130e-06  9.1940e-06  0:09:24 1774

 turbulent viscosity limited to viscosity ratio of 1.000000e+05 in 63 cells 
   227  3.5637e-03  9.7773e-07  7.8746e-06  5.6858e-06  1.0572e-05  0:07:31 1773

 turbulent viscosity limited to viscosity ratio of 1.000000e+05 in 62 cells 
   228  3.6167e-03  9.7398e-07  7.8376e-06  5.6627e-06  9.2962e-06  0:06:01 1772

 turbulent viscosity limited to viscosity ratio of 1.000000e+05 in 62 cells 
   229  3.9040e-03  9.6988e-07  7.8028e-06  5.6339e-06  9.0973e-06  0:10:43 1771

 turbulent viscosity limited to viscosity ratio of 1.000000e+05 in 61 cells 
   230  3.4771e-03  9.6270e-07  7.7723e-06  5.6092e-06  1.0378e-05  0:08:34 1770

 turbulent viscosity limited to viscosity ratio of 1.000000e+05 in 61 cells 
   231  3.6583e-03  9.5816e-07  7.7376e-06  5.5865e-06  9.1376e-06  0:06:51 1769

 turbulent viscosity limited to viscosity ratio of 1.000000e+05 in 61 cells 

  iter  continuity  x-velocity  y-velocity           k       omega     time/iter
   232  3.6854e-03  9.5708e-07  7.7052e-06  5.5601e-06  9.0279e-06  0:11:22 1768

 turbulent viscosity limited to viscosity ratio of 1.000000e+05 in 60 cells 
   233  3.5036e-03  9.4876e-07  7.6723e-06  5.5331e-06  1.0318e-05  0:09:05 1767

 turbulent viscosity limited to viscosity ratio of 1.000000e+05 in 59 cells 
   234  3.4242e-03  9.4787e-07  7.6420e-06  5.5128e-06  9.5926e-06  0:07:16 1766

 turbulent viscosity limited to viscosity ratio of 1.000000e+05 in 58 cells 
   235  3.8327e-03  9.4489e-07  7.6062e-06  5.4842e-06  9.5911e-06  0:11:42 1765

 turbulent viscosity limited to viscosity ratio of 1.000000e+05 in 56 cells 
   236  3.6268e-03  9.4000e-07  7.5796e-06  5.4612e-06  1.0792e-05  0:09:21 1764

 turbulent viscosity limited to viscosity ratio of 1.000000e+05 in 55 cells 
   237  3.8519e-03  9.3782e-07  7.5457e-06  5.4396e-06  9.8684e-06  0:07:29 1763

 turbulent viscosity limited to viscosity ratio of 1.000000e+05 in 54 cells 
   238  3.9349e-03  9.3732e-07  7.5164e-06  5.4150e-06  1.0489e-05  0:11:51 1762

 turbulent viscosity limited to viscosity ratio of 1.000000e+05 in 51 cells 
   239  4.5318e-03  9.3000e-07  7.4833e-06  5.3886e-06  1.1578e-05  0:09:28 1761

 turbulent viscosity limited to viscosity ratio of 1.000000e+05 in 53 cells 
   240  4.8018e-03  9.2871e-07  7.4565e-06  5.3678e-06  1.0144e-05  0:07:35 1760

 turbulent viscosity limited to viscosity ratio of 1.000000e+05 in 54 cells 
   241  4.6876e-03  9.2411e-07  7.4259e-06  5.3446e-06  9.9252e-06  0:11:55 1759

 turbulent viscosity limited to viscosity ratio of 1.000000e+05 in 53 cells 
   242  4.2588e-03  9.2394e-07  7.3962e-06  5.3234e-06  1.0203e-05  0:09:32 1758

 turbulent viscosity limited to viscosity ratio of 1.000000e+05 in 51 cells 

  iter  continuity  x-velocity  y-velocity           k       omega     time/iter
   243  4.4540e-03  9.2174e-07  7.3655e-06  5.3024e-06  1.0170e-05  0:07:37 1757

 turbulent viscosity limited to viscosity ratio of 1.000000e+05 in 51 cells 
   244  4.8402e-03  9.1835e-07  7.3356e-06  5.2820e-06  1.0196e-05  0:11:57 1756

 turbulent viscosity limited to viscosity ratio of 1.000000e+05 in 52 cells 
   245  4.8835e-03  9.1152e-07  7.3014e-06  5.2567e-06  1.0117e-05  0:09:33 1755

 turbulent viscosity limited to viscosity ratio of 1.000000e+05 in 50 cells 
   246  4.7279e-03  9.0674e-07  7.2700e-06  5.2351e-06  9.9925e-06  0:07:38 1754

 turbulent viscosity limited to viscosity ratio of 1.000000e+05 in 47 cells 
   247  4.6682e-03  9.0031e-07  7.2383e-06  5.2126e-06  1.0519e-05  0:11:57 1753

 turbulent viscosity limited to viscosity ratio of 1.000000e+05 in 48 cells 
   248  4.8436e-03  8.9846e-07  7.2087e-06  5.1946e-06  1.0443e-05  0:09:33 1752

 turbulent viscosity limited to viscosity ratio of 1.000000e+05 in 46 cells 
   249  4.9588e-03  8.9264e-07  7.1790e-06  5.1729e-06  1.0051e-05  0:07:38 1751

 turbulent viscosity limited to viscosity ratio of 1.000000e+05 in 45 cells 
   250  4.6381e-03  8.8974e-07  7.1478e-06  5.1518e-06  1.0114e-05  0:06:06 1750

 turbulent viscosity limited to viscosity ratio of 1.000000e+05 in 41 cells 
   251  4.7227e-03  8.8502e-07  7.1174e-06  5.1293e-06  1.0152e-05  0:10:43 1749

 turbulent viscosity limited to viscosity ratio of 1.000000e+05 in 42 cells 
   252  4.7414e-03  8.8286e-07  7.0882e-06  5.1084e-06  9.7435e-06  0:08:34 1748

 turbulent viscosity limited to viscosity ratio of 1.000000e+05 in 42 cells 
   253  4.9276e-03  8.8001e-07  7.0611e-06  5.0883e-06  9.5901e-06  0:06:51 1747

 turbulent viscosity limited to viscosity ratio of 1.000000e+05 in 42 cells 

  iter  continuity  x-velocity  y-velocity           k       omega     time/iter
   254  4.7731e-03  8.7755e-07  7.0327e-06  5.0694e-06  9.4721e-06  0:11:18 1746

 turbulent viscosity limited to viscosity ratio of 1.000000e+05 in 40 cells 
   255  4.9649e-03  8.7488e-07  7.0068e-06  5.0489e-06  9.3863e-06  0:09:02 1745

 turbulent viscosity limited to viscosity ratio of 1.000000e+05 in 34 cells 
   256  4.9817e-03  8.7391e-07  6.9803e-06  5.0290e-06  9.1187e-06  0:07:13 1744

 turbulent viscosity limited to viscosity ratio of 1.000000e+05 in 34 cells 
   257  5.1246e-03  8.7485e-07  6.9504e-06  5.0081e-06  9.0711e-06  0:11:35 1743

 turbulent viscosity limited to viscosity ratio of 1.000000e+05 in 34 cells 
   258  4.9615e-03  8.7616e-07  6.9270e-06  4.9892e-06  9.1146e-06  0:09:16 1742

 turbulent viscosity limited to viscosity ratio of 1.000000e+05 in 34 cells 
   259  5.6278e-03  8.8876e-07  6.9124e-06  4.9789e-06  1.0320e-05  0:07:24 1741

 turbulent viscosity limited to viscosity ratio of 1.000000e+05 in 31 cells 
   260  5.9632e-03  8.8283e-07  6.8890e-06  4.9530e-06  1.0867e-05  0:05:55 1740

 turbulent viscosity limited to viscosity ratio of 1.000000e+05 in 30 cells 
   261  6.1006e-03  8.8436e-07  6.8666e-06  4.9351e-06  1.0060e-05  0:10:32 1739

 turbulent viscosity limited to viscosity ratio of 1.000000e+05 in 26 cells 
   262  6.3016e-03  8.8869e-07  6.8472e-06  4.9157e-06  1.1610e-05  0:08:25 1738

 turbulent viscosity limited to viscosity ratio of 1.000000e+05 in 24 cells 
   263  6.6293e-03  9.0182e-07  6.8347e-06  4.8979e-06  9.2749e-06  0:06:44 1737

 turbulent viscosity limited to viscosity ratio of 1.000000e+05 in 21 cells 
   264  7.2440e-03  9.1695e-07  6.8311e-06  4.8815e-06  9.7185e-06  0:11:10 1736

 turbulent viscosity limited to viscosity ratio of 1.000000e+05 in 16 cells 

  iter  continuity  x-velocity  y-velocity           k       omega     time/iter
   265  8.3069e-03  9.3332e-07  6.8217e-06  4.8626e-06  1.1389e-05  0:08:56 1735

 turbulent viscosity limited to viscosity ratio of 1.000000e+05 in 15 cells 
   266  9.1541e-03  9.5385e-07  6.8191e-06  4.8428e-06  1.0932e-05  0:07:08 1734

 turbulent viscosity limited to viscosity ratio of 1.000000e+05 in 15 cells 
   267  9.9708e-03  9.8279e-07  6.8176e-06  4.8237e-06  1.0063e-05  0:11:29 1733

 turbulent viscosity limited to viscosity ratio of 1.000000e+05 in 14 cells 
   268  1.1174e-02  1.0216e-06  6.8189e-06  4.8067e-06  1.0673e-05  0:09:11 1732

 turbulent viscosity limited to viscosity ratio of 1.000000e+05 in 13 cells 
   269  1.1159e-02  1.0314e-06  6.7978e-06  4.7882e-06  1.2660e-05  0:07:21 1731

 turbulent viscosity limited to viscosity ratio of 1.000000e+05 in 16 cells 
   270  1.1618e-02  1.0276e-06  6.7893e-06  4.7710e-06  1.4892e-05  0:11:38 1730

 turbulent viscosity limited to viscosity ratio of 1.000000e+05 in 13 cells 
   271  1.2793e-02  1.0450e-06  6.7895e-06  4.7532e-06  1.0497e-05  0:09:18 1729

 turbulent viscosity limited to viscosity ratio of 1.000000e+05 in 14 cells 
   272  1.3602e-02  1.0793e-06  6.7925e-06  4.7362e-06  8.4769e-06  0:07:26 1728

 turbulent viscosity limited to viscosity ratio of 1.000000e+05 in 12 cells 
   273  1.4931e-02  1.1288e-06  6.8148e-06  4.7215e-06  8.2412e-06  0:05:57 1727

 turbulent viscosity limited to viscosity ratio of 1.000000e+05 in 12 cells 
   274  1.5038e-02  1.0860e-06  6.7595e-06  4.7059e-06  8.1868e-06  0:10:31 1726

 turbulent viscosity limited to viscosity ratio of 1.000000e+05 in 14 cells 
   275  1.5583e-02  1.0635e-06  6.7259e-06  4.6932e-06  8.0259e-06  0:08:24 1725

 turbulent viscosity limited to viscosity ratio of 1.000000e+05 in 16 cells 

  iter  continuity  x-velocity  y-velocity           k       omega     time/iter
   276  1.7164e-02  1.0389e-06  6.6491e-06  4.6752e-06  7.4283e-06  0:06:43 1724

 turbulent viscosity limited to viscosity ratio of 1.000000e+05 in 13 cells 
   277  1.7087e-02  1.0114e-06  6.5953e-06  4.6552e-06  7.1975e-06  0:11:07 1723

 turbulent viscosity limited to viscosity ratio of 1.000000e+05 in 10 cells 
   278  1.5448e-02  9.6716e-07  6.4875e-06  4.6370e-06  7.1268e-06  0:08:53 1722

 turbulent viscosity limited to viscosity ratio of 1.000000e+05 in 10 cells 
   279  2.5973e-02  9.5956e-07  6.6026e-06  4.6211e-06  7.0970e-06  0:07:06 1721

 turbulent viscosity limited to viscosity ratio of 1.000000e+05 in 10 cells 
   280  3.5576e-02  1.0269e-06  6.6730e-06  4.6056e-06  7.1579e-06  0:05:41 1720

 turbulent viscosity limited to viscosity ratio of 1.000000e+05 in 9 cells 
   281  3.8689e-02  1.0924e-06  6.6475e-06  4.5900e-06  6.8354e-06  0:10:16 1719

 turbulent viscosity limited to viscosity ratio of 1.000000e+05 in 9 cells 
   282  3.7369e-02  1.1098e-06  6.5758e-06  4.5728e-06  6.7579e-06  0:08:13 1718

 turbulent viscosity limited to viscosity ratio of 1.000000e+05 in 6 cells 
   283  3.4254e-02  1.0818e-06  6.5131e-06  4.5552e-06  6.6446e-06  0:06:34 1717

 turbulent viscosity limited to viscosity ratio of 1.000000e+05 in 5 cells 
   284  3.2037e-02  1.0371e-06  6.4350e-06  4.5378e-06  6.6227e-06  0:10:58 1716

 turbulent viscosity limited to viscosity ratio of 1.000000e+05 in 5 cells 
   285  2.9734e-02  9.9370e-07  6.3701e-06  4.5200e-06  6.4534e-06  0:08:46 1715

 turbulent viscosity limited to viscosity ratio of 1.000000e+05 in 5 cells 
   286  2.6211e-02  9.4647e-07  6.3095e-06  4.5014e-06  6.6070e-06  0:12:44 1714

 turbulent viscosity limited to viscosity ratio of 1.000000e+05 in 5 cells 

  iter  continuity  x-velocity  y-velocity           k       omega     time/iter
   287  2.4598e-02  9.0285e-07  6.2465e-06  4.4824e-06  7.3764e-06  0:10:10 1713

 turbulent viscosity limited to viscosity ratio of 1.000000e+05 in 3 cells 
   288  2.1787e-02  8.6774e-07  6.2009e-06  4.4632e-06  7.7314e-06  0:08:08 1712

 turbulent viscosity limited to viscosity ratio of 1.000000e+05 in 4 cells 
   289  2.0340e-02  8.4166e-07  6.1562e-06  4.4437e-06  7.8084e-06  0:12:12 1711

 turbulent viscosity limited to viscosity ratio of 1.000000e+05 in 3 cells 
   290  1.8759e-02  8.1502e-07  6.1131e-06  4.4244e-06  7.4999e-06  0:09:46 1710

 turbulent viscosity limited to viscosity ratio of 1.000000e+05 in 3 cells 
   291  1.5482e-02  7.9897e-07  6.0703e-06  4.4053e-06  8.6266e-06  0:07:48 1709

 turbulent viscosity limited to viscosity ratio of 1.000000e+05 in 3 cells 
   292  1.4912e-02  7.8379e-07  6.0379e-06  4.3868e-06  9.1533e-06  0:06:14 1708

 turbulent viscosity limited to viscosity ratio of 1.000000e+05 in 3 cells 
   293  1.3585e-02  7.7384e-07  6.0046e-06  4.3690e-06  9.2612e-06  0:10:41 1707

 turbulent viscosity limited to viscosity ratio of 1.000000e+05 in 3 cells 
   294  1.1225e-02  7.6423e-07  5.9733e-06  4.3519e-06  8.8997e-06  0:08:32 1706

 turbulent viscosity limited to viscosity ratio of 1.000000e+05 in 4 cells 
   295  9.7500e-03  7.5486e-07  5.9425e-06  4.3352e-06  8.6488e-06  0:06:50 1705

 turbulent viscosity limited to viscosity ratio of 1.000000e+05 in 3 cells 
   296  9.0010e-03  7.4716e-07  5.9164e-06  4.3193e-06  1.0013e-05  0:11:08 1704

 turbulent viscosity limited to viscosity ratio of 1.000000e+05 in 2 cells 
   297  8.3084e-03  7.4020e-07  5.8938e-06  4.3039e-06  1.1769e-05  0:08:54 1703

 turbulent viscosity limited to viscosity ratio of 1.000000e+05 in 3 cells 

  iter  continuity  x-velocity  y-velocity           k       omega     time/iter
   298  8.1899e-03  7.3226e-07  5.8682e-06  4.2907e-06  6.8191e-06  0:07:07 1702

 turbulent viscosity limited to viscosity ratio of 1.000000e+05 in 3 cells 
   299  7.4986e-03  7.2855e-07  5.8378e-06  4.2749e-06  6.1363e-06  0:05:42 1701

 turbulent viscosity limited to viscosity ratio of 1.000000e+05 in 2 cells 
   300  6.5457e-03  7.2535e-07  5.8113e-06  4.2601e-06  5.7731e-06  0:10:13 1700

 turbulent viscosity limited to viscosity ratio of 1.000000e+05 in 2 cells 
   301  5.8856e-03  7.2006e-07  5.7822e-06  4.2455e-06  6.0321e-06  0:08:10 1699

 turbulent viscosity limited to viscosity ratio of 1.000000e+05 in 4 cells 
   302  5.3759e-03  7.1840e-07  5.7559e-06  4.2323e-06  6.5306e-06  0:06:32 1698

 turbulent viscosity limited to viscosity ratio of 1.000000e+05 in 3 cells 
   303  5.2826e-03  7.1917e-07  5.7286e-06  4.2198e-06  6.8174e-06  0:10:53 1697

 turbulent viscosity limited to viscosity ratio of 1.000000e+05 in 3 cells 
   304  5.1681e-03  7.0723e-07  5.7016e-06  4.2032e-06  6.4057e-06  0:08:42 1696

 turbulent viscosity limited to viscosity ratio of 1.000000e+05 in 2 cells 
   305  5.1366e-03  7.0282e-07  5.6764e-06  4.1894e-06  6.4690e-06  0:06:57 1695

 turbulent viscosity limited to viscosity ratio of 1.000000e+05 in 1 cells 
   306  5.2107e-03  6.9859e-07  5.6520e-06  4.1761e-06  8.3661e-06  0:11:12 1694

 turbulent viscosity limited to viscosity ratio of 1.000000e+05 in 1 cells 
   307  4.7058e-03  6.9553e-07  5.6291e-06  4.1632e-06  9.7016e-06  0:08:58 1693

 turbulent viscosity limited to viscosity ratio of 1.000000e+05 in 1 cells 
   308  4.7124e-03  6.9499e-07  5.6006e-06  4.1508e-06  9.2972e-06  0:07:10 1692

 turbulent viscosity limited to viscosity ratio of 1.000000e+05 in 1 cells 

  iter  continuity  x-velocity  y-velocity           k       omega     time/iter
   309  4.9804e-03  6.9226e-07  5.5754e-06  4.1386e-06  8.0992e-06  0:05:44 1691

 turbulent viscosity limited to viscosity ratio of 1.000000e+05 in 1 cells 
   310  4.8335e-03  6.8931e-07  5.5504e-06  4.1267e-06  7.0116e-06  0:10:13 1690

 turbulent viscosity limited to viscosity ratio of 1.000000e+05 in 1 cells 
   311  4.4457e-03  6.8890e-07  5.5223e-06  4.1152e-06  6.2861e-06  0:08:10 1689

 turbulent viscosity limited to viscosity ratio of 1.000000e+05 in 1 cells 
   312  4.2060e-03  6.8548e-07  5.4983e-06  4.1039e-06  6.0855e-06  0:06:32 1688

 turbulent viscosity limited to viscosity ratio of 1.000000e+05 in 1 cells 
   313  3.8890e-03  6.8034e-07  5.4760e-06  4.0929e-06  5.7802e-06  0:10:51 1687

 turbulent viscosity limited to viscosity ratio of 1.000000e+05 in 2 cells 
   314  3.5649e-03  6.7403e-07  5.4498e-06  4.0819e-06  5.5713e-06  0:08:40 1686

 turbulent viscosity limited to viscosity ratio of 1.000000e+05 in 2 cells 
   315  3.3018e-03  6.6934e-07  5.4259e-06  4.0710e-06  5.2682e-06  0:06:56 1685
   316  3.1419e-03  6.6473e-07  5.4021e-06  4.0600e-06  5.1346e-06  0:11:09 1684
   317  2.9731e-03  6.6014e-07  5.3787e-06  4.0492e-06  4.9157e-06  0:08:55 1683
   318  2.8264e-03  6.5565e-07  5.3555e-06  4.0384e-06  4.8671e-06  0:07:08 1682
   319  2.6535e-03  6.5075e-07  5.3329e-06  4.0277e-06  4.7385e-06  0:05:42 1681

  iter  continuity  x-velocity  y-velocity           k       omega     time/iter
   320  2.4717e-03  6.4618e-07  5.3105e-06  4.0171e-06  4.7053e-06  0:10:09 1680
   321  2.3601e-03  6.4172e-07  5.2880e-06  4.0065e-06  4.6221e-06  0:08:07 1679
   322  2.2733e-03  6.3745e-07  5.2657e-06  3.9961e-06  4.6102e-06  0:06:30 1678
   323  2.1368e-03  6.3324e-07  5.2435e-06  3.9857e-06  4.5919e-06  0:10:47 1677
   324  2.0106e-03  6.2935e-07  5.2214e-06  3.9754e-06  4.5526e-06  0:08:37 1676
   325  1.8987e-03  6.2567e-07  5.1996e-06  3.9651e-06  4.5084e-06  0:06:54 1675
   326  1.8127e-03  6.2205e-07  5.1780e-06  3.9550e-06  4.4625e-06  0:11:05 1674
   327  1.7469e-03  6.1857e-07  5.1564e-06  3.9449e-06  4.4244e-06  0:08:52 1673
   328  1.6986e-03  6.1518e-07  5.1350e-06  3.9349e-06  4.3912e-06  0:07:05 1672
   329  1.6471e-03  6.1182e-07  5.1137e-06  3.9250e-06  4.3582e-06  0:11:14 1671
   330  1.6115e-03  6.0863e-07  5.0926e-06  3.9151e-06  4.3511e-06  0:08:59 1670

  iter  continuity  x-velocity  y-velocity           k       omega     time/iter
   331  1.5669e-03  6.0543e-07  5.0716e-06  3.9053e-06  4.3559e-06  0:07:11 1669
   332  1.5235e-03  6.0222e-07  5.0509e-06  3.8955e-06  4.3679e-06  0:11:18 1668
   333  1.4970e-03  5.9918e-07  5.0302e-06  3.8858e-06  4.4246e-06  0:09:02 1667
   334  1.4744e-03  5.9626e-07  5.0096e-06  3.8762e-06  4.4175e-06  0:07:14 1666
   335  1.4311e-03  5.9322e-07  4.9893e-06  3.8666e-06  4.3463e-06  0:11:20 1665
   336  1.4008e-03  5.9024e-07  4.9689e-06  3.8571e-06  4.3281e-06  0:09:03 1664
   337  1.3724e-03  5.8725e-07  4.9487e-06  3.8477e-06  4.2545e-06  0:07:14 1663
   338  1.3485e-03  5.8441e-07  4.9286e-06  3.8382e-06  4.1443e-06  0:05:47 1662
   339  1.3104e-03  5.8159e-07  4.9087e-06  3.8289e-06  3.9930e-06  0:10:10 1661
   340  1.2746e-03  5.7876e-07  4.8890e-06  3.8195e-06  3.8737e-06  0:08:08 1660
   341  1.2430e-03  5.7600e-07  4.8693e-06  3.8103e-06  3.7897e-06  0:06:30 1659

  iter  continuity  x-velocity  y-velocity           k       omega     time/iter
   342  1.2186e-03  5.7327e-07  4.8498e-06  3.8011e-06  3.7158e-06  0:10:43 1658
   343  1.1914e-03  5.7058e-07  4.8304e-06  3.7919e-06  3.6539e-06  0:08:34 1657
   344  1.1547e-03  5.6782e-07  4.8105e-06  3.7828e-06  3.5835e-06  0:06:51 1656
   345  1.1207e-03  5.6552e-07  4.7917e-06  3.7737e-06  3.5254e-06  0:11:00 1655
   346  1.1008e-03  5.6274e-07  4.7729e-06  3.7646e-06  3.4757e-06  0:08:48 1654
   347  1.0757e-03  5.5968e-07  4.7534e-06  3.7557e-06  3.4351e-06  0:07:02 1653
   348  1.0585e-03  5.5746e-07  4.7348e-06  3.7467e-06  3.4016e-06  0:05:37 1652
   349  1.0505e-03  5.5494e-07  4.7163e-06  3.7379e-06  3.3722e-06  0:10:00 1651
   350  1.0428e-03  5.5228e-07  4.6970e-06  3.7290e-06  3.3499e-06  0:08:00 1650
   351  1.0291e-03  5.5015e-07  4.6789e-06  3.7203e-06  3.3268e-06  0:11:53 1649
   352  1.0253e-03  5.4765e-07  4.6606e-06  3.7115e-06  3.3106e-06  0:09:30 1648

 turbulent viscosity limited to viscosity ratio of 1.000000e+05 in 1 cells 

  iter  continuity  x-velocity  y-velocity           k       omega     time/iter
   353  1.0212e-03  5.4503e-07  4.6417e-06  3.7028e-06  3.2959e-06  0:07:36 1647

 turbulent viscosity limited to viscosity ratio of 1.000000e+05 in 1 cells 
   354  1.0051e-03  5.4295e-07  4.6238e-06  3.6942e-06  3.2849e-06  0:06:04 1646

 turbulent viscosity limited to viscosity ratio of 1.000000e+05 in 1 cells 
   355  1.0042e-03  5.4060e-07  4.6058e-06  3.6856e-06  3.2754e-06  0:10:20 1645

 turbulent viscosity limited to viscosity ratio of 1.000000e+05 in 1 cells 
   356  9.9857e-04  5.3812e-07  4.5872e-06  3.6771e-06  3.2679e-06  0:08:16 1644

 turbulent viscosity limited to viscosity ratio of 1.000000e+05 in 1 cells 
   357  9.8251e-04  5.3612e-07  4.5696e-06  3.6686e-06  3.2597e-06  0:06:37 1643

 turbulent viscosity limited to viscosity ratio of 1.000000e+05 in 1 cells 
   358  9.8443e-04  5.3386e-07  4.5519e-06  3.6601e-06  3.2506e-06  0:10:45 1642

 turbulent viscosity limited to viscosity ratio of 1.000000e+05 in 1 cells 
   359  9.8284e-04  5.3146e-07  4.5336e-06  3.6517e-06  3.2420e-06  0:08:36 1641

 turbulent viscosity limited to viscosity ratio of 1.000000e+05 in 1 cells 
   360  9.6882e-04  5.2955e-07  4.5162e-06  3.6434e-06  3.2333e-06  0:06:53 1640

 turbulent viscosity limited to viscosity ratio of 1.000000e+05 in 1 cells 
   361  9.6612e-04  5.2734e-07  4.4988e-06  3.6351e-06  3.2254e-06  0:10:58 1639
   362  9.6185e-04  5.2505e-07  4.4806e-06  3.6268e-06  3.2186e-06  0:08:46 1638
   363  9.4041e-04  5.2322e-07  4.4636e-06  3.6186e-06  3.2123e-06  0:07:00 1637

  iter  continuity  x-velocity  y-velocity           k       omega     time/iter
   364  9.3757e-04  5.2105e-07  4.4464e-06  3.6104e-06  3.2070e-06  0:05:36 1636
   365  9.2732e-04  5.1882e-07  4.4285e-06  3.6022e-06  3.2024e-06  0:09:56 1635
   366  9.0992e-04  5.1698e-07  4.4116e-06  3.5942e-06  3.2003e-06  0:07:56 1634
   367  9.0971e-04  5.1488e-07  4.3947e-06  3.5861e-06  3.2014e-06  0:06:21 1633
   368  9.0722e-04  5.1268e-07  4.3771e-06  3.5781e-06  3.2121e-06  0:10:31 1632
   369  8.9675e-04  5.1093e-07  4.3605e-06  3.5701e-06  3.2427e-06  0:08:24 1631
   370  8.9840e-04  5.0886e-07  4.3439e-06  3.5622e-06  3.2580e-06  0:06:43 1630
   371  8.9657e-04  5.0670e-07  4.3265e-06  3.5543e-06  3.2230e-06  0:05:22 1629
   372  8.8760e-04  5.0497e-07  4.3101e-06  3.5465e-06  3.2017e-06  0:09:43 1628
   373  8.8893e-04  5.0298e-07  4.2937e-06  3.5387e-06  3.1862e-06  0:07:46 1627
   374  8.8376e-04  5.0085e-07  4.2766e-06  3.5310e-06  3.1765e-06  0:11:38 1626

  iter  continuity  x-velocity  y-velocity           k       omega     time/iter
   375  8.6858e-04  4.9915e-07  4.2604e-06  3.5233e-06  3.1688e-06  0:09:18 1625
   376  8.6565e-04  4.9723e-07  4.2442e-06  3.5156e-06  3.1646e-06  0:07:26 1624
   377  8.5399e-04  4.9515e-07  4.2273e-06  3.5080e-06  3.1615e-06  0:11:21 1623
   378  8.3821e-04  4.9350e-07  4.2114e-06  3.5004e-06  3.1607e-06  0:09:05 1622
   379  8.2836e-04  4.9155e-07  4.1954e-06  3.4928e-06  3.1598e-06  0:07:16 1621
   380  8.1801e-04  4.8952e-07  4.1788e-06  3.4853e-06  3.1619e-06  0:05:48 1620
   381  8.0903e-04  4.8787e-07  4.1630e-06  3.4779e-06  3.1651e-06  0:10:02 1619
   382  8.0925e-04  4.8598e-07  4.1473e-06  3.4705e-06  3.1714e-06  0:08:01 1618
   383  8.1630e-04  4.8405e-07  4.1310e-06  3.4631e-06  3.1819e-06  0:06:25 1617
   384  8.2182e-04  4.8245e-07  4.1156e-06  3.4557e-06  3.2011e-06  0:10:31 1616
   385  8.4224e-04  4.8068e-07  4.1002e-06  3.4484e-06  3.1970e-06  0:08:24 1615

  iter  continuity  x-velocity  y-velocity           k       omega     time/iter
   386  8.5191e-04  4.7887e-07  4.0845e-06  3.4412e-06  3.1782e-06  0:06:43 1614
   387  8.5603e-04  4.7710e-07  4.0684e-06  3.4339e-06  3.1499e-06  0:10:45 1613

 turbulent viscosity limited to viscosity ratio of 1.000000e+05 in 1 cells 
   388  8.4936e-04  4.7550e-07  4.0532e-06  3.4267e-06  3.0788e-06  0:08:36 1612

 turbulent viscosity limited to viscosity ratio of 1.000000e+05 in 1 cells 
   389  8.4598e-04  4.7368e-07  4.0380e-06  3.4196e-06  2.9823e-06  0:06:52 1611

 turbulent viscosity limited to viscosity ratio of 1.000000e+05 in 1 cells 
   390  8.4217e-04  4.7179e-07  4.0226e-06  3.4124e-06  2.8842e-06  0:05:30 1610

 turbulent viscosity limited to viscosity ratio of 1.000000e+05 in 1 cells 
   391  8.3670e-04  4.6998e-07  4.0068e-06  3.4053e-06  2.8201e-06  0:09:45 1609

 turbulent viscosity limited to viscosity ratio of 1.000000e+05 in 1 cells 
   392  8.2172e-04  4.6847e-07  3.9919e-06  3.3983e-06  2.7911e-06  0:07:48 1608

 turbulent viscosity limited to viscosity ratio of 1.000000e+05 in 1 cells 
   393  8.1541e-04  4.6672e-07  3.9769e-06  3.3912e-06  2.7565e-06  0:06:14 1607

 turbulent viscosity limited to viscosity ratio of 1.000000e+05 in 1 cells 
   394  8.0985e-04  4.6494e-07  3.9618e-06  3.3842e-06  2.7226e-06  0:10:20 1606

 turbulent viscosity limited to viscosity ratio of 1.000000e+05 in 1 cells 
   395  7.9720e-04  4.6320e-07  3.9463e-06  3.3773e-06  2.6900e-06  0:08:16 1605
   396  7.7698e-04  4.6172e-07  3.9316e-06  3.3703e-06  2.6632e-06  0:06:37 1604

  iter  continuity  x-velocity  y-velocity           k       omega     time/iter
   397  7.7634e-04  4.6004e-07  3.9169e-06  3.3634e-06  2.6422e-06  0:10:38 1603
   398  7.7269e-04  4.5822e-07  3.9017e-06  3.3566e-06  2.6259e-06  0:08:30 1602
   399  7.6965e-04  4.5679e-07  3.8872e-06  3.3498e-06  2.6148e-06  0:06:48 1601
   400  7.7288e-04  4.5513e-07  3.8728e-06  3.3430e-06  2.6074e-06  0:05:26 1600
   401  7.7186e-04  4.5338e-07  3.8577e-06  3.3362e-06  2.6055e-06  0:09:40 1599
   402  7.6746e-04  4.5193e-07  3.8434e-06  3.3295e-06  2.6112e-06  0:07:44 1598
   403  7.7333e-04  4.5029e-07  3.8291e-06  3.3228e-06  2.6344e-06  0:06:11 1597
   404  7.7524e-04  4.4856e-07  3.8143e-06  3.3161e-06  2.6737e-06  0:10:16 1596
   405  7.7784e-04  4.4716e-07  3.8002e-06  3.3095e-06  2.6330e-06  0:08:12 1595
   406  7.8118e-04  4.4554e-07  3.7861e-06  3.3029e-06  2.6074e-06  0:06:34 1594
   407  7.7790e-04  4.4382e-07  3.7715e-06  3.2964e-06  2.5905e-06  0:10:33 1593

  iter  continuity  x-velocity  y-velocity           k       omega     time/iter
   408  7.7009e-04  4.4246e-07  3.7576e-06  3.2899e-06  2.5781e-06  0:08:26 1592
   409  7.7420e-04  4.4086e-07  3.7437e-06  3.2834e-06  2.5692e-06  0:06:45 1591
   410  7.7012e-04  4.3925e-07  3.7292e-06  3.2769e-06  2.5623e-06  0:10:42 1590
   411  7.6751e-04  4.3788e-07  3.7155e-06  3.2705e-06  2.5578e-06  0:08:33 1589
   412  7.6433e-04  4.3629e-07  3.7018e-06  3.2641e-06  2.5532e-06  0:06:50 1588
   413  7.5683e-04  4.3467e-07  3.6875e-06  3.2577e-06  2.5495e-06  0:05:28 1587
   414  7.4784e-04  4.3328e-07  3.6740e-06  3.2514e-06  2.5429e-06  0:09:39 1586

 turbulent viscosity limited to viscosity ratio of 1.000000e+05 in 1 cells 
   415  7.4912e-04  4.3173e-07  3.6604e-06  3.2450e-06  2.5404e-06  0:07:43 1585

 turbulent viscosity limited to viscosity ratio of 1.000000e+05 in 1 cells 
   416  7.4590e-04  4.3014e-07  3.6463e-06  3.2388e-06  2.5384e-06  0:06:10 1584

 turbulent viscosity limited to viscosity ratio of 1.000000e+05 in 1 cells 
   417  7.3592e-04  4.2878e-07  3.6331e-06  3.2325e-06  2.5372e-06  0:10:13 1583

 turbulent viscosity limited to viscosity ratio of 1.000000e+05 in 1 cells 
   418  7.3701e-04  4.2724e-07  3.6197e-06  3.2263e-06  2.5411e-06  0:08:10 1582

 turbulent viscosity limited to viscosity ratio of 1.000000e+05 in 1 cells 

  iter  continuity  x-velocity  y-velocity           k       omega     time/iter
   419  7.3463e-04  4.2563e-07  3.6058e-06  3.2201e-06  2.5425e-06  0:11:48 1581

 turbulent viscosity limited to viscosity ratio of 1.000000e+05 in 1 cells 
   420  7.2501e-04  4.2432e-07  3.5927e-06  3.2140e-06  2.5480e-06  0:09:26 1580

 turbulent viscosity limited to viscosity ratio of 1.000000e+05 in 1 cells 
   421  7.2525e-04  4.2283e-07  3.5795e-06  3.2079e-06  2.5130e-06  0:07:32 1579

 turbulent viscosity limited to viscosity ratio of 1.000000e+05 in 1 cells 
   422  7.1924e-04  4.2127e-07  3.5658e-06  3.2018e-06  2.4503e-06  0:06:02 1578

 turbulent viscosity limited to viscosity ratio of 1.000000e+05 in 1 cells 
   423  7.1093e-04  4.1997e-07  3.5528e-06  3.1957e-06  2.3953e-06  0:10:05 1577

 turbulent viscosity limited to viscosity ratio of 1.000000e+05 in 1 cells 
   424  7.1397e-04  4.1849e-07  3.5398e-06  3.1897e-06  2.3189e-06  0:08:03 1576

 turbulent viscosity limited to viscosity ratio of 1.000000e+05 in 1 cells 
   425  7.1300e-04  4.1696e-07  3.5263e-06  3.1836e-06  2.2443e-06  0:06:26 1575
   426  7.0933e-04  4.1567e-07  3.5136e-06  3.1777e-06  2.1930e-06  0:10:24 1574
   427  7.0935e-04  4.1424e-07  3.5007e-06  3.1717e-06  2.1813e-06  0:08:19 1573
   428  7.0563e-04  4.1277e-07  3.4875e-06  3.1658e-06  2.1644e-06  0:06:39 1572

 turbulent viscosity limited to viscosity ratio of 1.000000e+05 in 1 cells 
   429  6.9786e-04  4.1151e-07  3.4749e-06  3.1598e-06  2.1479e-06  0:10:33 1571

 turbulent viscosity limited to viscosity ratio of 1.000000e+05 in 1 cells 

  iter  continuity  x-velocity  y-velocity           k       omega     time/iter
   430  6.9353e-04  4.1007e-07  3.4623e-06  3.1540e-06  2.1301e-06  0:08:26 1570

 turbulent viscosity limited to viscosity ratio of 1.000000e+05 in 1 cells 
   431  6.9208e-04  4.0863e-07  3.4491e-06  3.1481e-06  2.1147e-06  0:06:45 1569

 turbulent viscosity limited to viscosity ratio of 1.000000e+05 in 1 cells 
   432  6.7743e-04  4.0739e-07  3.4367e-06  3.1423e-06  2.1046e-06  0:10:37 1568

 turbulent viscosity limited to viscosity ratio of 1.000000e+05 in 1 cells 
   433  6.7322e-04  4.0596e-07  3.4238e-06  3.1365e-06  2.1011e-06  0:08:29 1567

 turbulent viscosity limited to viscosity ratio of 1.000000e+05 in 1 cells 
   434  6.6634e-04  4.0473e-07  3.4116e-06  3.1307e-06  2.1098e-06  0:06:47 1566

 turbulent viscosity limited to viscosity ratio of 1.000000e+05 in 1 cells 
   435  6.6305e-04  4.0330e-07  3.3987e-06  3.1250e-06  2.1314e-06  0:05:26 1565

 turbulent viscosity limited to viscosity ratio of 1.000000e+05 in 1 cells 
   436  6.5409e-04  4.0210e-07  3.3866e-06  3.1192e-06  2.1071e-06  0:09:33 1564
   437  6.4696e-04  4.0071e-07  3.3739e-06  3.1135e-06  2.0882e-06  0:07:38 1563
   438  6.3370e-04  3.9953e-07  3.3618e-06  3.1079e-06  2.0747e-06  0:06:06 1562
   439  6.2794e-04  3.9813e-07  3.3492e-06  3.1022e-06  2.0645e-06  0:10:05 1561
   440  6.1821e-04  3.9700e-07  3.3372e-06  3.0966e-06  2.0565e-06  0:08:04 1560

  iter  continuity  x-velocity  y-velocity           k       omega     time/iter
   441  6.1489e-04  3.9564e-07  3.3248e-06  3.0910e-06  2.0515e-06  0:06:27 1559
   442  6.0406e-04  3.9448e-07  3.3130e-06  3.0855e-06  2.0504e-06  0:10:21 1558
   443  6.0752e-04  3.9318e-07  3.3006e-06  3.0799e-06  2.0535e-06  0:08:16 1557
   444  6.0280e-04  3.9206e-07  3.2889e-06  3.0744e-06  2.0644e-06  0:06:37 1556
   445  6.0523e-04  3.9077e-07  3.2767e-06  3.0689e-06  2.0837e-06  0:10:28 1555
   446  5.9931e-04  3.8966e-07  3.2650e-06  3.0635e-06  2.0674e-06  0:08:22 1554
   447  5.9875e-04  3.8839e-07  3.2529e-06  3.0580e-06  2.0574e-06  0:06:42 1553
   448  5.9043e-04  3.8727e-07  3.2414e-06  3.0526e-06  2.0521e-06  0:05:21 1552
   449  5.8900e-04  3.8604e-07  3.2294e-06  3.0472e-06  2.0486e-06  0:09:27 1551
   450  5.7795e-04  3.8493e-07  3.2180e-06  3.0419e-06  2.0482e-06  0:07:33 1550
   451  5.7304e-04  3.8369e-07  3.2061e-06  3.0365e-06  2.0475e-06  0:06:02 1549

  iter  continuity  x-velocity  y-velocity           k       omega     time/iter
   452  5.6601e-04  3.8262e-07  3.1948e-06  3.0312e-06  2.0455e-06  0:09:59 1548
   453  5.6517e-04  3.8143e-07  3.1831e-06  3.0259e-06  2.0405e-06  0:07:59 1547
   454  5.6022e-04  3.8038e-07  3.1718e-06  3.0206e-06  2.0295e-06  0:06:23 1546
   455  5.5729e-04  3.7920e-07  3.1602e-06  3.0154e-06  2.0056e-06  0:10:15 1545
   456  5.4885e-04  3.7819e-07  3.1490e-06  3.0102e-06  1.9702e-06  0:08:12 1544
   457  5.4180e-04  3.7702e-07  3.1375e-06  3.0050e-06  1.9202e-06  0:06:33 1543
   458  5.3453e-04  3.7603e-07  3.1264e-06  2.9997e-06  1.8752e-06  0:10:23 1542
   459  5.3332e-04  3.7494e-07  3.1150e-06  2.9944e-06  1.8329e-06  0:08:18 1541
   460  5.3073e-04  3.7395e-07  3.1040e-06  2.9892e-06  1.7776e-06  0:06:38 1540
   461  5.3228e-04  3.7291e-07  3.0927e-06  2.9840e-06  1.7132e-06  0:05:18 1539
   462  5.2679e-04  3.7193e-07  3.0818e-06  2.9788e-06  1.6369e-06  0:09:22 1538

  iter  continuity  x-velocity  y-velocity           k       omega     time/iter
[...]
  1823  3.4423e-05  8.4887e-08  2.6100e-07  1.4716e-06  2.4021e-07  0:00:34  177
  1824  3.4309e-05  8.4828e-08  2.6075e-07  1.4713e-06  2.4020e-07  0:00:27  176
  1825  3.4493e-05  8.4794e-08  2.6050e-07  1.4711e-06  2.4013e-07  0:00:22  175
  1826  3.4328e-05  8.4735e-08  2.6025e-07  1.4708e-06  2.4007e-07  0:00:52  174

  iter  continuity  x-velocity  y-velocity           k       omega     time/iter
  1827  3.4431e-05  8.4701e-08  2.5999e-07  1.4706e-06  2.4004e-07  0:00:41  173
  1828  3.4278e-05  8.4643e-08  2.5974e-07  1.4703e-06  2.4002e-07  0:00:33  172
  1829  3.4398e-05  8.4609e-08  2.5949e-07  1.4701e-06  2.3990e-07  0:00:26  171
  1830  3.4267e-05  8.4551e-08  2.5924e-07  1.4699e-06  2.3985e-07  0:00:21  170
  1831  3.4400e-05  8.4517e-08  2.5898e-07  1.4696e-06  2.3974e-07  0:00:17  169
  1832  3.4263e-05  8.4459e-08  2.5874e-07  1.4694e-06  2.3958e-07  0:00:47  168
  1833  3.4349e-05  8.4425e-08  2.5848e-07  1.4691e-06  2.3939e-07  0:00:37  167
  1834  3.4155e-05  8.4367e-08  2.5824e-07  1.4689e-06  2.3934e-07  0:00:30  166
  1835  3.4241e-05  8.4334e-08  2.5798e-07  1.4686e-06  2.3932e-07  0:00:24  165
  1836  3.4074e-05  8.4276e-08  2.5774e-07  1.4684e-06  2.3942e-07  0:00:19  164
  1837  3.4180e-05  8.4243e-08  2.5749e-07  1.4681e-06  2.3948e-07  0:00:47  163

  iter  continuity  x-velocity  y-velocity           k       omega     time/iter
  1838  3.4024e-05  8.4185e-08  2.5724e-07  1.4679e-06  2.3966e-07  0:00:38  162
  1839  3.4148e-05  8.4152e-08  2.5699e-07  1.4676e-06  2.3935e-07  0:00:30  161
  1840  3.3990e-05  8.4094e-08  2.5674e-07  1.4674e-06  2.3925e-07  0:00:24  160
  1841  3.4121e-05  8.4061e-08  2.5649e-07  1.4671e-06  2.3906e-07  0:00:19  159
  1842  3.3967e-05  8.4003e-08  2.5625e-07  1.4669e-06  2.3901e-07  0:00:15  158
  1843  3.4112e-05  8.3970e-08  2.5600e-07  1.4667e-06  2.3890e-07  0:00:43  157
  1844  3.3933e-05  8.3912e-08  2.5576e-07  1.4664e-06  2.3880e-07  0:00:34  156
  1845  3.4053e-05  8.3879e-08  2.5551e-07  1.4662e-06  2.3862e-07  0:00:27  155
  1846  3.3871e-05  8.3822e-08  2.5527e-07  1.4659e-06  2.3849e-07  0:00:22  154
  1847  3.3994e-05  8.3788e-08  2.5502e-07  1.4657e-06  2.3843e-07  0:00:17  153
  1848  3.3825e-05  8.3731e-08  2.5478e-07  1.4654e-06  2.3850e-07  0:00:44  152

  iter  continuity  x-velocity  y-velocity           k       omega     time/iter
  1849  3.3957e-05  8.3697e-08  2.5453e-07  1.4652e-06  2.3843e-07  0:00:35  151
  1850  3.3802e-05  8.3641e-08  2.5429e-07  1.4650e-06  2.3836e-07  0:00:28  150
  1851  3.3934e-05  8.3607e-08  2.5404e-07  1.4647e-06  2.3825e-07  0:00:22  149
  1852  3.3745e-05  8.3550e-08  2.5380e-07  1.4645e-06  2.3817e-07  0:00:18  148
  1853  3.3842e-05  8.3516e-08  2.5355e-07  1.4642e-06  2.3800e-07  0:00:14  147
  1854  3.3595e-05  8.3460e-08  2.5331e-07  1.4640e-06  2.3797e-07  0:00:40  146
  1855  3.3741e-05  8.3426e-08  2.5307e-07  1.4637e-06  2.3775e-07  0:00:32  145
  1856  3.3610e-05  8.3370e-08  2.5283e-07  1.4635e-06  2.3753e-07  0:00:25  144
  1857  3.3780e-05  8.3336e-08  2.5258e-07  1.4633e-06  2.3734e-07  0:00:49  143
  1858  3.3588e-05  8.3281e-08  2.5235e-07  1.4630e-06  2.3733e-07  0:00:39  142
  1859  3.3734e-05  8.3247e-08  2.5210e-07  1.4628e-06  2.3732e-07  0:00:31  141

  iter  continuity  x-velocity  y-velocity           k       omega     time/iter
  1860  3.3520e-05  8.3191e-08  2.5186e-07  1.4625e-06  2.3742e-07  0:00:24  140
  1861  3.3675e-05  8.3157e-08  2.5162e-07  1.4623e-06  2.3756e-07  0:00:19  139
  1862  3.3466e-05  8.3102e-08  2.5138e-07  1.4620e-06  2.3777e-07  0:00:15  138
  1863  3.3629e-05  8.3067e-08  2.5114e-07  1.4618e-06  2.3739e-07  0:00:40  137
  1864  3.3422e-05  8.3012e-08  2.5091e-07  1.4616e-06  2.3730e-07  0:00:31  136
  1865  3.3592e-05  8.2978e-08  2.5066e-07  1.4613e-06  2.3714e-07  0:00:25  135
  1866  3.3388e-05  8.2923e-08  2.5043e-07  1.4611e-06  2.3716e-07  0:00:20  134
  1867  3.3583e-05  8.2889e-08  2.5019e-07  1.4608e-06  2.3699e-07  0:00:16  133
  1868  3.3396e-05  8.2833e-08  2.4995e-07  1.4606e-06  2.3694e-07  0:00:39  132
  1869  3.3587e-05  8.2799e-08  2.4971e-07  1.4604e-06  2.3671e-07  0:00:31  131
  1870  3.3382e-05  8.2744e-08  2.4948e-07  1.4601e-06  2.3672e-07  0:00:25  130

  iter  continuity  x-velocity  y-velocity           k       omega     time/iter
  1871  3.3558e-05  8.2710e-08  2.4924e-07  1.4599e-06  2.3662e-07  0:00:19  129
  1872  3.3361e-05  8.2655e-08  2.4900e-07  1.4596e-06  2.3682e-07  0:00:15  128
  1873  3.3556e-05  8.2622e-08  2.4877e-07  1.4594e-06  2.3668e-07  0:00:12  127
  1874  3.3363e-05  8.2567e-08  2.4853e-07  1.4592e-06  2.3672e-07  0:00:35  126
  1875  3.3564e-05  8.2533e-08  2.4829e-07  1.4589e-06  2.3646e-07  0:00:28  125
  1876  3.3390e-05  8.2478e-08  2.4806e-07  1.4587e-06  2.3646e-07  0:00:22  124
  1877  3.3615e-05  8.2444e-08  2.4782e-07  1.4584e-06  2.3632e-07  0:00:17  123
  1878  3.3439e-05  8.2389e-08  2.4759e-07  1.4582e-06  2.3636e-07  0:00:14  122
  1879  3.3657e-05  8.2356e-08  2.4736e-07  1.4580e-06  2.3588e-07  0:00:35  121
  1880  3.3464e-05  8.2301e-08  2.4712e-07  1.4577e-06  2.3584e-07  0:00:28  120
  1881  3.3674e-05  8.2267e-08  2.4689e-07  1.4575e-06  2.3560e-07  0:00:22  119

  iter  continuity  x-velocity  y-velocity           k       omega     time/iter
  1882  3.3455e-05  8.2213e-08  2.4666e-07  1.4573e-06  2.3581e-07  0:00:18  118
  1883  3.3669e-05  8.2179e-08  2.4642e-07  1.4570e-06  2.3567e-07  0:00:14  117
  1884  3.3473e-05  8.2125e-08  2.4619e-07  1.4568e-06  2.3596e-07  0:00:34  116
  1885  3.3721e-05  8.2092e-08  2.4596e-07  1.4565e-06  2.3602e-07  0:00:27  115
  1886  3.3528e-05  8.2038e-08  2.4573e-07  1.4563e-06  2.3630e-07  0:00:22  114
  1887  3.3789e-05  8.2004e-08  2.4549e-07  1.4561e-06  2.3574e-07  0:00:17  113
  1888  3.3607e-05  8.1950e-08  2.4527e-07  1.4558e-06  2.3579e-07  0:00:14  112
  1889  3.3861e-05  8.1917e-08  2.4503e-07  1.4556e-06  2.3563e-07  0:00:11  111
  1890  3.3675e-05  8.1863e-08  2.4481e-07  1.4554e-06  2.3566e-07  0:00:31  110
  1891  3.3938e-05  8.1830e-08  2.4457e-07  1.4551e-06  2.3533e-07  0:00:24  109
  1892  3.3756e-05  8.1776e-08  2.4435e-07  1.4549e-06  2.3525e-07  0:00:19  108

  iter  continuity  x-velocity  y-velocity           k       omega     time/iter
  1893  3.4059e-05  8.1743e-08  2.4411e-07  1.4546e-06  2.3496e-07  0:00:15  107
  1894  3.3898e-05  8.1689e-08  2.4389e-07  1.4544e-06  2.3515e-07  0:00:12  106
  1895  3.4066e-05  8.1656e-08  2.4366e-07  1.4542e-06  2.3506e-07  0:00:31  105
  1896  3.3707e-05  8.1601e-08  2.4343e-07  1.4539e-06  2.3519e-07  0:00:24  104
  1897  3.3794e-05  8.1568e-08  2.4320e-07  1.4537e-06  2.3499e-07  0:00:19  103
  1898  3.3446e-05  8.1514e-08  2.4297e-07  1.4535e-06  2.3497e-07  0:00:15  102
  1899  3.3623e-05  8.1481e-08  2.4274e-07  1.4532e-06  2.3465e-07  0:00:32  101
  1900  3.3302e-05  8.1427e-08  2.4252e-07  1.4530e-06  2.3468e-07  0:00:26  100
  1901  3.3454e-05  8.1394e-08  2.4229e-07  1.4528e-06  2.3445e-07  0:00:20   99
  1902  3.3087e-05  8.1340e-08  2.4206e-07  1.4525e-06  2.3419e-07  0:00:16   98
  1903  3.3249e-05  8.1307e-08  2.4184e-07  1.4523e-06  2.3385e-07  0:00:13   97

  iter  continuity  x-velocity  y-velocity           k       omega     time/iter
  1904  3.2868e-05  8.1253e-08  2.4161e-07  1.4521e-06  2.3373e-07  0:00:29   96
  1905  3.3024e-05  8.1221e-08  2.4138e-07  1.4518e-06  2.3372e-07  0:00:23   95
  1906  3.2646e-05  8.1167e-08  2.4116e-07  1.4516e-06  2.3376e-07  0:00:18   94
  1907  3.2826e-05  8.1134e-08  2.4093e-07  1.4514e-06  2.3382e-07  0:00:15   93
  1908  3.2463e-05  8.1080e-08  2.4071e-07  1.4511e-06  2.3397e-07  0:00:11   92
  1909  3.2658e-05  8.1048e-08  2.4048e-07  1.4509e-06  2.3410e-07  0:00:09   91
  1910  3.2275e-05  8.0994e-08  2.4026e-07  1.4507e-06  2.3400e-07  0:00:25   90
  1911  3.2435e-05  8.0961e-08  2.4004e-07  1.4504e-06  2.3377e-07  0:00:20   89
  1912  3.2044e-05  8.0907e-08  2.3981e-07  1.4502e-06  2.3371e-07  0:00:16   88
  1913  3.2256e-05  8.0875e-08  2.3959e-07  1.4500e-06  2.3361e-07  0:00:12   87
  1914  3.1876e-05  8.0821e-08  2.3937e-07  1.4497e-06  2.3335e-07  0:00:27   86

  iter  continuity  x-velocity  y-velocity           k       omega     time/iter
  1915  3.1667e-05  8.0782e-08  2.3915e-07  1.4495e-06  2.3313e-07  0:00:21   85
  1916  3.1613e-05  8.0741e-08  2.3892e-07  1.4493e-06  2.3290e-07  0:00:17   84
  1917  3.1574e-05  8.0698e-08  2.3870e-07  1.4490e-06  2.3304e-07  0:00:13   83
  1918  3.1875e-05  8.0660e-08  2.3848e-07  1.4488e-06  2.3309e-07  0:00:11   82
  1919  3.1582e-05  8.0606e-08  2.3826e-07  1.4486e-06  2.3313e-07  0:00:08   81
  1920  3.1801e-05  8.0572e-08  2.3804e-07  1.4483e-06  2.3301e-07  0:00:23   80
  1921  3.1616e-05  8.0521e-08  2.3782e-07  1.4481e-06  2.3292e-07  0:00:18   79
  1922  3.1827e-05  8.0488e-08  2.3759e-07  1.4479e-06  2.3271e-07  0:00:14   78
  1923  3.1607e-05  8.0436e-08  2.3738e-07  1.4476e-06  2.3270e-07  0:00:11   77
  1924  3.1804e-05  8.0403e-08  2.3715e-07  1.4474e-06  2.3244e-07  0:00:09   76
  1925  3.1578e-05  8.0351e-08  2.3694e-07  1.4472e-06  2.3218e-07  0:00:22   75

  iter  continuity  x-velocity  y-velocity           k       omega     time/iter
  1926  3.1759e-05  8.0317e-08  2.3672e-07  1.4469e-06  2.3189e-07  0:00:17   74
  1927  3.1517e-05  8.0266e-08  2.3650e-07  1.4467e-06  2.3179e-07  0:00:14   73
  1928  3.1688e-05  8.0232e-08  2.3628e-07  1.4465e-06  2.3169e-07  0:00:11   72
  1929  3.1449e-05  8.0181e-08  2.3606e-07  1.4462e-06  2.3174e-07  0:00:09   71
  1930  3.1610e-05  8.0147e-08  2.3584e-07  1.4460e-06  2.3174e-07  0:00:07   70
  1931  3.1367e-05  8.0096e-08  2.3563e-07  1.4458e-06  2.3183e-07  0:00:19   69
  1932  3.1515e-05  8.0062e-08  2.3541e-07  1.4455e-06  2.3179e-07  0:00:15   68
  1933  3.1276e-05  8.0011e-08  2.3520e-07  1.4453e-06  2.3184e-07  0:00:12   67
  1934  3.1438e-05  7.9978e-08  2.3497e-07  1.4451e-06  2.3165e-07  0:00:09   66
  1935  3.1212e-05  7.9927e-08  2.3476e-07  1.4449e-06  2.3170e-07  0:00:07   65
  1936  3.0921e-05  7.9887e-08  2.3454e-07  1.4446e-06  2.3149e-07  0:00:19   64

  iter  continuity  x-velocity  y-velocity           k       omega     time/iter
  1937  3.1031e-05  7.9848e-08  2.3433e-07  1.4444e-06  2.3129e-07  0:00:15   63
  1938  3.1270e-05  7.9810e-08  2.3411e-07  1.4442e-06  2.3101e-07  0:00:12   62
  1939  3.0941e-05  7.9757e-08  2.3390e-07  1.4439e-06  2.3096e-07  0:00:09   61
  1940  3.0682e-05  7.9718e-08  2.3368e-07  1.4437e-06  2.3099e-07  0:00:19   60
  1941  3.0809e-05  7.9680e-08  2.3347e-07  1.4435e-06  2.3114e-07  0:00:15   59
  1942  3.0619e-05  7.9636e-08  2.3325e-07  1.4432e-06  2.3112e-07  0:00:12   58
  1943  3.0612e-05  7.9594e-08  2.3304e-07  1.4430e-06  2.3108e-07  0:00:09   57
  1944  3.0444e-05  7.9551e-08  2.3283e-07  1.4428e-06  2.3084e-07  0:00:07   56
  1945  3.0493e-05  7.9510e-08  2.3261e-07  1.4426e-06  2.3085e-07  0:00:06   55
  1946  3.0357e-05  7.9467e-08  2.3240e-07  1.4423e-06  2.3066e-07  0:00:15   54
  1947  3.0421e-05  7.9426e-08  2.3219e-07  1.4421e-06  2.3042e-07  0:00:12   53

  iter  continuity  x-velocity  y-velocity           k       omega     time/iter
  1948  3.0293e-05  7.9383e-08  2.3198e-07  1.4419e-06  2.3007e-07  0:00:09   52
  1949  3.0356e-05  7.9342e-08  2.3176e-07  1.4416e-06  2.2992e-07  0:00:07   51
  1950  3.0221e-05  7.9300e-08  2.3155e-07  1.4414e-06  2.2977e-07  0:00:06   50
  1951  3.0276e-05  7.9259e-08  2.3134e-07  1.4412e-06  2.2976e-07  0:00:14   49
  1952  3.0126e-05  7.9216e-08  2.3113e-07  1.4410e-06  2.2968e-07  0:00:11   48
  1953  3.0183e-05  7.9175e-08  2.3092e-07  1.4407e-06  2.2979e-07  0:00:09   47
  1954  3.0038e-05  7.9133e-08  2.3071e-07  1.4405e-06  2.2970e-07  0:00:07   46
  1955  3.0083e-05  7.9092e-08  2.3050e-07  1.4403e-06  2.2972e-07  0:00:05   45
  1956  2.9931e-05  7.9050e-08  2.3029e-07  1.4401e-06  2.2963e-07  0:00:13   44
  1957  2.9979e-05  7.9009e-08  2.3008e-07  1.4398e-06  2.2973e-07  0:00:10   43
  1958  2.9841e-05  7.8966e-08  2.2987e-07  1.4396e-06  2.2954e-07  0:00:08   42

  iter  continuity  x-velocity  y-velocity           k       omega     time/iter
  1959  2.9880e-05  7.8926e-08  2.2966e-07  1.4394e-06  2.2950e-07  0:00:06   41
  1960  2.9694e-05  7.8883e-08  2.2945e-07  1.4392e-06  2.2921e-07  0:00:05   40
  1961  2.9717e-05  7.8842e-08  2.2924e-07  1.4389e-06  2.2908e-07  0:00:04   39
  1962  2.9539e-05  7.8800e-08  2.2903e-07  1.4387e-06  2.2903e-07  0:00:11   38
  1963  2.9563e-05  7.8759e-08  2.2882e-07  1.4385e-06  2.2917e-07  0:00:08   37
  1964  2.9399e-05  7.8717e-08  2.2862e-07  1.4382e-06  2.2918e-07  0:00:06   36
  1965  2.9434e-05  7.8677e-08  2.2841e-07  1.4380e-06  2.2927e-07  0:00:05   35
  1966  2.9271e-05  7.8635e-08  2.2820e-07  1.4378e-06  2.2906e-07  0:00:04   34
  1967  2.9341e-05  7.8594e-08  2.2800e-07  1.4376e-06  2.2895e-07  0:00:10   33
  1968  2.9204e-05  7.8552e-08  2.2779e-07  1.4373e-06  2.2882e-07  0:00:07   32
  1969  2.9294e-05  7.8512e-08  2.2758e-07  1.4371e-06  2.2865e-07  0:00:06   31

  iter  continuity  x-velocity  y-velocity           k       omega     time/iter
  1970  2.9161e-05  7.8470e-08  2.2738e-07  1.4369e-06  2.2825e-07  0:00:04   30
  1971  2.9248e-05  7.8429e-08  2.2717e-07  1.4367e-06  2.2804e-07  0:00:03   29
  1972  2.9105e-05  7.8387e-08  2.2697e-07  1.4364e-06  2.2779e-07  0:00:08   28
  1973  2.9195e-05  7.8347e-08  2.2676e-07  1.4362e-06  2.2781e-07  0:00:06   27
  1974  2.9038e-05  7.8305e-08  2.2656e-07  1.4360e-06  2.2769e-07  0:00:05   26
  1975  2.9107e-05  7.8265e-08  2.2635e-07  1.4358e-06  2.2774e-07  0:00:04   25
  1976  2.8934e-05  7.8224e-08  2.2615e-07  1.4355e-06  2.2765e-07  0:00:03   24
  1977  2.9031e-05  7.8183e-08  2.2594e-07  1.4353e-06  2.2766e-07  0:00:02   23
  1978  2.8874e-05  7.8142e-08  2.2574e-07  1.4351e-06  2.2752e-07  0:00:06   22
  1979  2.8956e-05  7.8102e-08  2.2554e-07  1.4349e-06  2.2754e-07  0:00:05   21
  1980  2.8810e-05  7.8060e-08  2.2533e-07  1.4347e-06  2.2741e-07  0:00:04   20

  iter  continuity  x-velocity  y-velocity           k       omega     time/iter
  1981  2.8919e-05  7.8020e-08  2.2513e-07  1.4344e-06  2.2737e-07  0:00:03   19
  1982  2.8776e-05  7.7979e-08  2.2493e-07  1.4342e-06  2.2720e-07  0:00:06   18
  1983  2.8890e-05  7.7938e-08  2.2473e-07  1.4340e-06  2.2704e-07  0:00:04   17
  1984  2.8748e-05  7.7897e-08  2.2452e-07  1.4338e-06  2.2694e-07  0:00:03   16
  1985  2.8868e-05  7.7857e-08  2.2432e-07  1.4335e-06  2.2701e-07  0:00:02   15
  1986  2.8721e-05  7.7816e-08  2.2412e-07  1.4333e-06  2.2700e-07  0:00:02   14
  1987  2.8838e-05  7.7776e-08  2.2392e-07  1.4331e-06  2.2701e-07  0:00:04   13
  1988  2.8698e-05  7.7735e-08  2.2372e-07  1.4329e-06  2.2689e-07  0:00:03   12
  1989  2.8827e-05  7.7694e-08  2.2352e-07  1.4326e-06  2.2680e-07  0:00:02   11
  1990  2.8676e-05  7.7653e-08  2.2332e-07  1.4324e-06  2.2674e-07  0:00:02   10
  1991  2.8827e-05  7.7613e-08  2.2312e-07  1.4322e-06  2.2656e-07  0:00:01    9

  iter  continuity  x-velocity  y-velocity           k       omega     time/iter
  1992  2.8658e-05  7.7572e-08  2.2292e-07  1.4320e-06  2.2627e-07  0:00:02    8
  1993  2.8798e-05  7.7532e-08  2.2272e-07  1.4318e-06  2.2610e-07  0:00:02    7
  1994  2.8662e-05  7.7491e-08  2.2252e-07  1.4315e-06  2.2592e-07  0:00:01    6
  1995  2.8798e-05  7.7451e-08  2.2232e-07  1.4313e-06  2.2584e-07  0:00:01    5
  1996  2.8637e-05  7.7411e-08  2.2212e-07  1.4311e-06  2.2577e-07  0:00:00    4
  1997  2.8763e-05  7.7370e-08  2.2192e-07  1.4309e-06  2.2578e-07  0:00:00    3
  1998  2.8624e-05  7.7330e-08  2.2172e-07  1.4306e-06  2.2572e-07  0:00:01    2
  1999  2.8740e-05  7.7290e-08  2.2153e-07  1.4304e-06  2.2564e-07  0:00:00    1
  2000  2.8597e-05  7.7249e-08  2.2133e-07  1.4302e-06  2.2553e-07  0:00:00    0

> 
adjoint/                parallel/               server/
define/                 parametric-study/       solve/
display/                plot/                   surface/
exit                    preferences/            views/
file/                   print-license-usage
mesh/                   report/

> ;create rakes
surface/rake-surface cv_inlet -0.005 -0.065 -0.005 0.065 1000

> surface/rake-surface cv_outlet 1.005 -0.065 1.005 0.065 1000

> surface/rake-surface cv_top -0.005 0.065 1.005 0.065 1000

> surface/rake-surface cv_bottom -0.005 -0.065 1.005 -0.065 1000

> surface/point-surface free-stream -15 0

> 
adjoint/                parallel/               server/
define/                 parametric-study/       solve/
display/                plot/                   surface/
exit                    preferences/            views/
file/                   print-license-usage
mesh/                   report/

> ;export data
file/export/ascii NP_CVinlet_data cv_inlet () no pressure x-velocity y-velocity dx-velocity-dx dx-velocity-dy dy-velocity-dx dy-velocity-dy q no 
Writing "NP_CVinlet_data"...

Writing information to ascii file ...
Done.

ok


Overwrite confirmations (/file/set-batch-options ...)
are on -- will therefore ignore the following journal
Error: invalid command: ok


> file/export/ascii NP_CVoutlet_data cv_outlet () no pressure x-velocity y-velocity dx-velocity-dx dx-velocity-dy dy-velocity-dx dy-velocity-dy q no 
Writing "NP_CVoutlet_data"...

Writing information to ascii file ...
Done.

ok


Overwrite confirmations (/file/set-batch-options ...)
are on -- will therefore ignore the following journal
Error: invalid command: ok


> file/export/ascii NP_CVtop_data cv_top () no pressure x-velocity y-velocity dx-velocity-dx dx-velocity-dy dy-velocity-dx dy-velocity-dy q no 
Writing "NP_CVtop_data"...

Writing information to ascii file ...
Done.

ok


Overwrite confirmations (/file/set-batch-options ...)
are on -- will therefore ignore the following journal
Error: invalid command: ok


> file/export/ascii NP_CVbottom_data cv_bottom () no pressure x-velocity y-velocity dx-velocity-dx dx-velocity-dy dy-velocity-dx dy-velocity-dy q no 
Writing "NP_CVbottom_data"...

Writing information to ascii file ...
Done.

ok


Overwrite confirmations (/file/set-batch-options ...)
are on -- will therefore ignore the following journal
Error: invalid command: ok


> file/export/ascii air_properties free-stream () no density viscosity-lam q no 
Writing "air_properties"...

Writing information to ascii file ...
Done.

ok


Overwrite confirmations (/file/set-batch-options ...)
are on -- will therefore ignore the following journal
Error: invalid command: ok


> 
adjoint/                parallel/               server/
define/                 parametric-study/       solve/
display/                plot/                   surface/
exit                    preferences/            views/
file/                   print-license-usage
mesh/                   report/

> ;flag file to know when simulation is over
file/export/ascii flag_file free-stream () no pressure q no 
Writing "flag_file"...

Writing information to ascii file ...
Done.

ok


Overwrite confirmations (/file/set-batch-options ...)
are on -- will therefore ignore the following journal
Error: invalid command: ok


> 
adjoint/                parallel/               server/
define/                 parametric-study/       solve/
display/                plot/                   surface/
exit                    preferences/            views/
file/                   print-license-usage
mesh/                   report/

> /exit y
(cx-gui-do cx-activate-item "Question*OK")

Posting ANSYS Product Improvement Program performance data 
Done.
Auto-Transcript Stop Time:  19:46:19, 22 Jul 2025 GMT Summer Time 
Total Transcript Time: 1 Day 22 Hour 27 Minute 38 Second.
