Auto-Transcript Start Time:  02:38:20, 14 Aug 2025 GMT Summer Time 
Current Directory: "C:\Users\V.Chepuri\OneDrive - Cranfield University\irp\pablo\GCI\Medium_mesh"

              Welcome to ANSYS Fluent 2024 R2

              Copyright 1987-2024 ANSYS, Inc. All Rights Reserved.
              Unauthorized use, distribution or duplication is prohibited.
              This product is subject to U.S. laws governing export and re-export.
              For full Legal Notice, see documentation.

Build Time: May 13 2024 11:17:42 EST  Build Id: 10192  
 
Connected License Server List:	1055@cclic-2.central.cranfield.ac.uk

*********************************************
Info: Your license enables 4-way parallel execution.
For faster simulations, please start the application with the appropriate parallel options.
*********************************************


     --------------------------------------------------------------
     This is an academic version of ANSYS FLUENT. Usage of this product
     license is limited to the terms and conditions specified in your ANSYS
     license form, additional terms section.
     --------------------------------------------------------------
Host spawning Node 0 on machine "37PCL051" (win64).

-------------------------------------------------------------------------------
ID    Hostname  Core  O.S.         PID    Vendor                          
-------------------------------------------------------------------------------
n0    37PCL051  1/28  Windows-x64  5496   Intel(R) Core(TM) i7-14700      
host  37PCL051        Windows-x64  21356  Intel(R) Core(TM) i7-14700      

MPI Option Selected: intel
-------------------------------------------------------------------------------

Cleanup script file is C:\\Users\\V.Chepuri\\OneDrive - Cranfield University\\irp\\pablo\\GCI\\Medium_mesh\\cleanup-fluent-37PCL051-21356.bat

Posting ANSYS Product Improvement Program startup data
Done.

> (cx-gui-do cx-activate-item "Key Behavioral Changes*PanelButtons*PushButton1(OK)")
(cx-gui-do cx-activate-item "MenuBar*ReadSubMenu*Case...")
(cx-gui-do cx-set-file-dialog-entries "Select File" '( "C:/Users/V.Chepuri/OneDrive - Cranfield University/irp/pablo/GCI/try_2/coarse/template_medium.cas.h5") "CFF Case Files (*.cas.h5 *.msh.h5 *.MSH.h5 )")
Fast-loading "C:\PROGRA~1\ANSYSI~1\v242\fluent\fluent24.2.0\\addons\afd\lib\hdfio.bin"
Done.
Note: Rank = 0: Process affinity not being set (6).

Reading from 37PCL051:"C:/Users/V.Chepuri/OneDrive - Cranfield University/irp/pablo/GCI/try_2/coarse/template_medium.cas.h5" in NODE0 mode ...
  Reading mesh ...
      142418 cells,     3 cell zones ...
           9206 mixed cells,  zone id: 2
         106661 mixed cells,  zone id: 4
          26551 mixed cells,  zone id: 12
      240367 faces,    11 face zones ...
          16170 2D interior faces,  zone id: 3
         178860 2D interior faces,  zone id: 5
             42 2D velocity-inlet faces,  zone id: 6
             38 2D pressure-outlet faces,  zone id: 7
             40 2D velocity-inlet faces,  zone id: 8
            229 2D interior faces,  zone id: 9
            228 2D interior faces,  zone id: 10
             20 2D parent-face faces,  zone id: 17
             19 2D parent-face faces,  zone id: 16
             21 2D parent-face faces,  zone id: 15
          44700 2D parent-face faces,  zone id: 14
       79741 nodes,     1 node zone  ...
  Done.


Warning: this is a single-precision solver.

Building...
     mesh
     materials,
     interface,
     domains,
	mixture
     zones,
	outlet
	inlet
	interior-fluid
	interior-porous
	symmetry
	upper
	lower
	fluid
	porous
WARNING: "Smooth" contours can't be displayed when node-values is set to off. Changing the Coloring type to "Banded".
     parallel,

Note: 2d, double precision, pressure-based, laminar case read into
      2d, pressure-based, laminar solver.



Done.
(cx-gui-do cx-activate-item "Information*OK")
(cx-gui-do cx-activate-item "ToolBar*Mesh Display*fl_mesh_svg_graphics_toolbar")
(cx-gui-do cx-activate-item "Mesh Display*PanelButtons*PushButton2(Cancel)")
(cx-gui-do cx-activate-item "MenuBar*ReadSubMenu*Case...")
(cx-gui-do cx-set-file-dialog-entries "Select File" '( "C:/Users/V.Chepuri/OneDrive - Cranfield University/irp/pablo/GCI/Medium_mesh/template_medium.cas.h5") "CFF Case Files (*.cas.h5 *.msh.h5 *.MSH.h5 )")
Note: Rank = 0: Process affinity not being set (6).

       Clearing partially read grid.

Reading from 37PCL051:"C:/Users/V.Chepuri/OneDrive - Cranfield University/irp/pablo/GCI/Medium_mesh/template_medium.cas.h5" in NODE0 mode ...
  Reading mesh ...
      181070 cells,     4 cell zones ...
          36824 mixed cells,  zone id: 2
         108032 mixed cells,  zone id: 4
          27008 mixed cells,  zone id: 12
           9206 mixed cells,  zone id: 11
      309160 faces,    14 face zones ...
          65137 2D interior faces,  zone id: 3
         181145 2D interior faces,  zone id: 5
             42 2D velocity-inlet faces,  zone id: 6
             38 2D pressure-outlet faces,  zone id: 7
             40 2D velocity-inlet faces,  zone id: 8
            458 2D interior faces,  zone id: 9
            456 2D interior faces,  zone id: 10
            228 2D parent-face faces,  zone id: 19
            229 2D parent-face faces,  zone id: 18
             20 2D parent-face faces,  zone id: 17
             19 2D parent-face faces,  zone id: 16
             21 2D parent-face faces,  zone id: 15
          45157 2D parent-face faces,  zone id: 14
          16170 2D parent-face faces,  zone id: 13
      102461 nodes,     1 node zone  ...
  Done.


Warning: this is a single-precision solver.

Building...
     mesh
     materials,
     interface,
     domains,
	mixture
     zones,
	outlet
	inlet
	interior-fluid
	interior-porous
	symmetry
	upper
	lower
	fluid
	porous
WARNING: "Smooth" contours can't be displayed when node-values is set to off. Changing the Coloring type to "Banded".
     parallel,

Note: 2d, double precision, pressure-based, laminar case read into
      2d, pressure-based, laminar solver.



Done.
(cx-gui-do cx-activate-item "Information*OK")
(cx-gui-do cx-activate-item "ToolBar*Mesh Display*fl_mesh_svg_graphics_toolbar")
(cx-gui-do cx-activate-item "Mesh Display*PanelButtons*PushButton1(OK)")
(cx-gui-do cx-activate-item "Mesh Display*PanelButtons*PushButton2(Cancel)")
(cx-gui-do cx-activate-item "Ribbon*Frame1*Frame2(Domain)*Table1*Table3(Adapt)*Table1*PushButton1(Manual)")
(cx-gui-do cx-activate-item "Manual Mesh Adaption*Table1*Table2*Table1*PushButton5(General Adaption Controls)")
(cx-gui-do cx-activate-item "General Adaption Controls*PanelButtons*PushButton2(Cancel)")
(cx-gui-do cx-activate-item "Manual Mesh Adaption*PanelButtons*PushButton4(Display)")
(cx-gui-do cx-activate-item "Question*OK")
(cx-gui-do cx-activate-item "Manual Mesh Adaption*Table1*Table2*Table1*PushButton5(General Adaption Controls)")
(cx-gui-do cx-set-toggle-button2 "General Adaption Controls*Table1*Table2*CheckButton1(Show Advanced Controls)" #t)
(cx-gui-do cx-activate-item "General Adaption Controls*Table1*Table2*CheckButton1(Show Advanced Controls)")
(cx-gui-do cx-set-list-selections "General Adaption Controls*Table1*Table2*Table3*List1(Zones)" '( 0))
(cx-gui-do cx-activate-item "General Adaption Controls*Table1*Table2*Table3*List1(Zones)")
(cx-gui-do cx-activate-item "General Adaption Controls*PanelButtons*PushButton1(OK)")
(cx-gui-do cx-activate-item "Manual Mesh Adaption*PanelButtons*PushButton1(Apply)")

 Dump usage: 144856 cells, 247316 faces, 102461 nodes

 Dump usage: 468952 cells, 792819 faces, 323868 nodes

 Grid size ( original /   adapted /    change)
     cells (   144856 /    468952 /    324096)
     faces (   247316 /    792819 /    545503)
     nodes (   102461 /    323868 /    221407)

Info: The hanging node adaption method will not be available for 2D cases in a future release of Fluent. The PUMA 2.5D adaption method can be used instead. To use PUMA 2.5D, convert the 2D mesh to a 3D mesh with a thickness of one cell layer, and enter the following text command:
mesh/adapt/set/method puma-2.5d
Support for the hanging node method is extended to the current release, in order to provide time for you to migrate your cases to the PUMA method.

(cx-gui-do cx-activate-item "Information*OK")
(cx-gui-do cx-activate-item "MenuBar*WriteSubMenu*Case...")
(cx-gui-do cx-set-file-dialog-entries "Select File" '( "C:/Users/V.Chepuri/OneDrive - Cranfield University/irp/pablo/GCI/dense_new/template_medium.cas.h5") "CFF Case Files (*.cas.h5 )")

Writing to 37PCL051:"C:/Users/V.Chepuri/OneDrive - Cranfield University/irp/pablo/GCI/dense_new/template_medium.cas.h5" in NODE0 mode and compression level 1 ...
Grouping cells for Laplace smoothing ...
      613198 cells,     4 zones ...
     1036842 faces,    14 zones ...
      323868 nodes,     1 zone  ...
  Done.
Done.
(cx-use-window-id 51)
(cxg-clear-all-selections (cx-active-window))
(cxg-add-surfaces-to-selection '() (cx-active-window))
(cx-gui-do cx-set-expression-entry "Manual Mesh Adaption*Table1*Table1*Table1*ExpressionEntry2(Coarsening Criterion)" '("region_0" . 5))
(cx-gui-do cx-activate-item "Manual Mesh Adaption*Table1*Table1*Table1*ExpressionEntry2(Coarsening Criterion)")
(cx-gui-do cx-set-expression-entry "Manual Mesh Adaption*Table1*Table1*Table1*ExpressionEntry1(Refinement Criterion)" '("" . 4))
(cx-gui-do cx-activate-item "Manual Mesh Adaption*Table1*Table1*Table1*ExpressionEntry1(Refinement Criterion)")
(cx-gui-do cx-activate-item "Manual Mesh Adaption*PanelButtons*PushButton1(Apply)")

 Dump usage: 468952 cells, 792819 faces, 323868 nodes

 Dump usage: 144856 cells, 247316 faces, 323852 nodes

 Grid size ( original /   adapted /    change)
     cells (   468952 /    144856 /   -324096)
     faces (   792819 /    247316 /   -545503)
     nodes (   323868 /    102461 /   -221407)
Info: The hanging node adaption method will not be available for 2D cases in a future release of Fluent. The PUMA 2.5D adaption method can be used instead. To use PUMA 2.5D, convert the 2D mesh to a 3D mesh with a thickness of one cell layer, and enter the following text command:
mesh/adapt/set/method puma-2.5d
Support for the hanging node method is extended to the current release, in order to provide time for you to migrate your cases to the PUMA method.
(cx-gui-do cx-set-expression-entry "Manual Mesh Adaption*Table1*Table1*Table1*ExpressionEntry2(Coarsening Criterion)" '("" . 4))
(cx-gui-do cx-activate-item "Manual Mesh Adaption*Table1*Table1*Table1*ExpressionEntry2(Coarsening Criterion)")
(cx-gui-do cx-set-expression-entry "Manual Mesh Adaption*Table1*Table1*Table1*ExpressionEntry1(Refinement Criterion)" '("region_0" . 5))
(cx-gui-do cx-activate-item "Manual Mesh Adaption*Table1*Table1*Table1*ExpressionEntry1(Refinement Criterion)")
(cx-gui-do cx-activate-item "Manual Mesh Adaption*Table1*Table2*Table1*PushButton2(Cell Registers)")
(cx-gui-do cx-activate-item "Manual Mesh Adaption*Table1*Table2*Table1*PushButton5(General Adaption Controls)")
(cx-gui-do cx-set-list-selections "General Adaption Controls*Table1*Table2*Table3*List1(Zones)" '( 0 1))
(cx-gui-do cx-activate-item "General Adaption Controls*Table1*Table2*Table3*List1(Zones)")
(cx-gui-do cx-set-list-selections "General Adaption Controls*Table1*Table2*Table3*List1(Zones)" '( 1))
(cx-gui-do cx-activate-item "General Adaption Controls*Table1*Table2*Table3*List1(Zones)")
(cx-gui-do cx-activate-item "General Adaption Controls*PanelButtons*PushButton1(OK)")
(cx-gui-do cx-activate-item "Manual Mesh Adaption*PanelButtons*PushButton1(Apply)")

 Dump usage: 144856 cells, 247316 faces, 102461 nodes

 Dump usage: 255328 cells, 444555 faces, 189228 nodes

 Grid size ( original /   adapted /    change)
     cells (   144856 /    255328 /    110472)
     faces (   247316 /    444555 /    197239)
     nodes (   102461 /    189228 /     86767)
Info: The hanging node adaption method will not be available for 2D cases in a future release of Fluent. The PUMA 2.5D adaption method can be used instead. To use PUMA 2.5D, convert the 2D mesh to a 3D mesh with a thickness of one cell layer, and enter the following text command:
mesh/adapt/set/method puma-2.5d
Support for the hanging node method is extended to the current release, in order to provide time for you to migrate your cases to the PUMA method.
(cx-gui-do cx-activate-item "Manual Mesh Adaption*PanelButtons*PushButton2(Close)")
(cx-gui-do cx-activate-item "MenuBar*WriteSubMenu*Case...")
(cx-gui-do cx-set-file-dialog-entries "Select File" '( "template_medium.cas.h5") "CFF Case Files (*.cas.h5 )")
(cx-gui-do cx-activate-item "Question*OK")

Writing to 37PCL051:"C:/Users/V.Chepuri/OneDrive - Cranfield University/irp/pablo/GCI/dense_new/template_medium.cas.h5" in NODE0 mode and compression level 1 ...
Grouping cells for Laplace smoothing ...
      328366 cells,     4 zones ...
      572450 faces,    14 zones ...
      189228 nodes,     1 zone  ...
  Done.
Done.
(cx-gui-do cx-activate-item "ToolBar*Mesh Display*fl_mesh_svg_graphics_toolbar")
(cx-gui-do cx-activate-item "Mesh Display*PanelButtons*PushButton1(OK)")
(cx-gui-do cx-activate-item "Mesh Display*PanelButtons*PushButton2(Cancel)")
(cx-use-window-id 51)
(dolly-camera -0.997458 -7.24852 0)
(cx-use-window-id 51)
(handle-key "control ??")
(cx-use-window-id 51)
(dolly-camera 0.124695 0.0403151 0)
(cx-use-window-id 51)
(handle-key "control ??")
(cx-use-window-id 51)
(dolly-camera 43.143 2.94545 0)
(cx-use-window-id 51)
(cx-gui-do cx-activate-item "MenuBar*ReadSubMenu*Journal...")

Reading journal file C:/Users/V.Chepuri/OneDrive - Cranfield University/irp/pablo/GCI/dense_new/template.jou...

> ;change to correct dir

file/read-case template_medium.cas.h5 Note: Rank = 0: Process affinity not being set (6).

       Clearing partially read grid.

Reading from 37PCL051:"C:\Users\V.Chepuri\OneDrive - Cranfield University\irp\pablo\GCI\Medium_mesh\template_medium.cas.h5" in NODE0 mode ...
  Reading mesh ...
      181070 cells,     4 cell zones ...
          36824 mixed cells,  zone id: 2
         108032 mixed cells,  zone id: 4
          27008 mixed cells,  zone id: 12
           9206 mixed cells,  zone id: 11
      309160 faces,    14 face zones ...
          65137 2D interior faces,  zone id: 3
         181145 2D interior faces,  zone id: 5
             42 2D velocity-inlet faces,  zone id: 6
             38 2D pressure-outlet faces,  zone id: 7
             40 2D velocity-inlet faces,  zone id: 8
            458 2D interior faces,  zone id: 9
            456 2D interior faces,  zone id: 10
            228 2D parent-face faces,  zone id: 19
            229 2D parent-face faces,  zone id: 18
             20 2D parent-face faces,  zone id: 17
             19 2D parent-face faces,  zone id: 16
             21 2D parent-face faces,  zone id: 15
          45157 2D parent-face faces,  zone id: 14
          16170 2D parent-face faces,  zone id: 13
      102461 nodes,     1 node zone  ...
  Done.


Warning: this is a single-precision solver.

Building...
     mesh
     materials,
     interface,
     domains,
	mixture
     zones,
	outlet
	inlet
	interior-fluid
	interior-porous
	symmetry
	upper
	lower
	fluid
	porous
WARNING: "Smooth" contours can't be displayed when node-values is set to off. Changing the Coloring type to "Banded".
     parallel,

Note: 2d, double precision, pressure-based, laminar case read into
      2d, pressure-based, laminar solver.



Done.
OK


Overwrite confirmations (/file/set-batch-options ...)
are on -- will therefore ignore the following journal
Error: invalid command: OK


> 
adjoint/                parallel/               server/
define/                 parametric-study/       solve/
display/                plot/                   surface/
exit                    preferences/            views/
file/                   print-license-usage
mesh/                   report/

> 
adjoint/                parallel/               server/
define/                 parametric-study/       solve/
display/                plot/                   surface/
exit                    preferences/            views/
file/                   print-license-usage
mesh/                   report/

> 
adjoint/                parallel/               server/
define/                 parametric-study/       solve/
display/                plot/                   surface/
exit                    preferences/            views/
file/                   print-license-usage
mesh/                   report/

> ;run simulation
solve/initialize/initialize-flow

> solve/iterate 2000

  iter  continuity  x-velocity  y-velocity     time/iter
     1  1.0000e+00  5.4423e-05  1.5033e-02  0:33:19 1999
     2  9.9960e-01  1.6265e-04  1.0957e-02  0:33:18 1998
     3  5.5247e-01  1.5554e-04  7.7820e-03  0:26:38 1997
     4  3.6195e-01  1.3483e-04  5.0890e-03  0:21:17 1996
     5  2.6245e-01  1.1351e-04  3.0737e-03  0:17:01 1995
     6  2.0311e-01  9.6062e-05  1.7328e-03  0:20:16 1994
     7  1.6578e-01  8.4031e-05  9.3666e-04  0:16:12 1993
     8  1.3987e-01  7.4145e-05  4.9361e-04  0:12:57 1992
     9  1.2032e-01  6.6139e-05  2.5645e-04  0:10:21 1991
    10  1.0332e-01  5.8841e-05  1.3243e-04  0:14:55 1990
    11  8.8935e-02  5.1859e-05  6.8548e-05  0:11:56 1989

  iter  continuity  x-velocity  y-velocity     time/iter
    12  7.5977e-02  4.4735e-05  3.6152e-05  0:09:32 1988
    13  6.5504e-02  3.8840e-05  1.9780e-05  0:07:37 1987
    14  5.7110e-02  3.3513e-05  1.1501e-05  0:12:43 1986
    15  5.0140e-02  2.8746e-05  7.3169e-06  0:10:10 1985
    16  4.3136e-02  2.4114e-05  5.1003e-06  0:08:08 1984
    17  3.8403e-02  2.0988e-05  3.9494e-06  0:06:30 1983
    18  3.3676e-02  1.7708e-05  3.2493e-06  0:05:12 1982
    19  2.9873e-02  1.5063e-05  2.7805e-06  0:10:46 1981
    20  2.6516e-02  1.2943e-05  2.4501e-06  0:08:36 1980
    21  2.3411e-02  1.1284e-05  2.1991e-06  0:06:53 1979
    22  2.1057e-02  1.0127e-05  2.0033e-06  0:05:30 1978

  iter  continuity  x-velocity  y-velocity     time/iter
    23  1.8620e-02  8.7595e-06  1.8157e-06  0:04:24 1977
    24  1.6459e-02  7.6738e-06  1.6529e-06  0:10:06 1976
    25  1.4617e-02  6.7694e-06  1.5107e-06  0:08:05 1975
    26  1.3123e-02  5.9770e-06  1.3891e-06  0:06:28 1974
    27  1.1805e-02  5.2913e-06  1.2789e-06  0:05:10 1973
    28  1.0685e-02  4.6705e-06  1.1900e-06  0:04:08 1972
    29  9.6927e-03  4.1194e-06  1.1147e-06  0:03:18 1971
    30  8.8381e-03  3.6239e-06  1.0440e-06  0:09:12 1970
    31  8.1168e-03  3.2059e-06  9.8286e-07  0:07:22 1969
    32  7.4036e-03  2.8370e-06  9.2636e-07  0:05:53 1968
    33  6.8150e-03  2.5128e-06  8.7958e-07  0:04:42 1967

  iter  continuity  x-velocity  y-velocity     time/iter
    34  6.2818e-03  2.2183e-06  8.4009e-07  0:03:46 1966
    35  5.8145e-03  1.9433e-06  8.0170e-07  0:09:34 1965
    36  5.4203e-03  1.7115e-06  7.6406e-07  0:07:39 1964
    37  5.0391e-03  1.5158e-06  7.2851e-07  0:06:07 1963
    38  4.6741e-03  1.3427e-06  6.9551e-07  0:04:53 1962
    39  4.3155e-03  1.1918e-06  6.6275e-07  0:03:54 1961
    40  4.0412e-03  1.0656e-06  6.3147e-07  0:03:07 1960
    41  3.7795e-03  9.5665e-07  6.0452e-07  0:09:02 1959
    42  3.5312e-03  8.6068e-07  5.8196e-07  0:07:13 1958
    43  3.3118e-03  7.7886e-07  5.6181e-07  0:05:46 1957
    44  3.1068e-03  7.1342e-07  5.4318e-07  0:04:37 1956

  iter  continuity  x-velocity  y-velocity     time/iter
    45  2.9241e-03  6.5727e-07  5.2623e-07  0:03:41 1955
    46  2.7731e-03  6.0850e-07  5.1040e-07  0:09:28 1954
    47  2.6343e-03  5.6535e-07  4.9556e-07  0:07:34 1953
    48  2.5026e-03  5.2541e-07  4.8245e-07  0:06:03 1952
    49  2.3841e-03  4.8845e-07  4.7015e-07  0:04:50 1951
    50  2.2949e-03  4.5507e-07  4.5794e-07  0:03:52 1950
    51  2.1997e-03  4.2469e-07  4.4636e-07  0:03:06 1949
    52  2.1135e-03  3.9541e-07  4.3519e-07  0:08:58 1948
    53  2.0382e-03  3.6890e-07  4.2484e-07  0:07:10 1947
    54  1.9649e-03  3.4475e-07  4.1572e-07  0:05:44 1946
    55  1.8952e-03  3.2276e-07  4.0687e-07  0:04:35 1945

  iter  continuity  x-velocity  y-velocity     time/iter
    56  1.8322e-03  3.0403e-07  3.9902e-07  0:03:40 1944
    57  1.7782e-03  2.8766e-07  3.9137e-07  0:02:56 1943
    58  1.7145e-03  2.7238e-07  3.8395e-07  0:08:49 1942
    59  1.6679e-03  2.5990e-07  3.7683e-07  0:07:03 1941
    60  1.6250e-03  2.4912e-07  3.6996e-07  0:05:38 1940
    61  1.5893e-03  2.3986e-07  3.6351e-07  0:10:58 1939
    62  1.5512e-03  2.3070e-07  3.5728e-07  0:08:46 1938
    63  1.5254e-03  2.2186e-07  3.5134e-07  0:07:01 1937
    64  1.4854e-03  2.1484e-07  3.4553e-07  0:05:36 1936
    65  1.4542e-03  2.0785e-07  3.3977e-07  0:04:29 1935
    66  1.4217e-03  2.0086e-07  3.3396e-07  0:03:35 1934

  iter  continuity  x-velocity  y-velocity     time/iter
    67  1.4014e-03  1.9537e-07  3.2843e-07  0:09:19 1933
    68  1.3732e-03  1.8938e-07  3.2322e-07  0:07:27 1932
    69  1.3527e-03  1.8450e-07  3.1831e-07  0:05:57 1931
    70  1.3233e-03  1.7990e-07  3.1357e-07  0:04:46 1930
    71  1.3034e-03  1.7644e-07  3.0895e-07  0:03:48 1929
    72  1.2885e-03  1.7370e-07  3.0444e-07  0:09:28 1928
    73  1.2698e-03  1.7132e-07  2.9999e-07  0:07:34 1927
    74  1.2478e-03  1.6902e-07  2.9576e-07  0:06:03 1926
    75  1.2327e-03  1.6699e-07  2.9172e-07  0:04:50 1925
    76  1.2251e-03  1.6503e-07  2.8783e-07  0:03:52 1924
    77  1.2058e-03  1.6257e-07  2.8412e-07  0:03:06 1923

  iter  continuity  x-velocity  y-velocity     time/iter
    78  1.1967e-03  1.6061e-07  2.8044e-07  0:08:53 1922
    79  1.1828e-03  1.5867e-07  2.7699e-07  0:07:06 1921
    80  1.1659e-03  1.5681e-07  2.7358e-07  0:05:41 1920
    81  1.1465e-03  1.5510e-07  2.7027e-07  0:04:32 1919
    82  1.1409e-03  1.5359e-07  2.6706e-07  0:03:38 1918
    83  1.1231e-03  1.5190e-07  2.6390e-07  0:09:18 1917
    84  1.1228e-03  1.5047e-07  2.6079e-07  0:07:26 1916
    85  1.1047e-03  1.4839e-07  2.5775e-07  0:05:56 1915
    86  1.0920e-03  1.4670e-07  2.5494e-07  0:04:45 1914
    87  1.0866e-03  1.4533e-07  2.5208e-07  0:03:48 1913
    88  1.0788e-03  1.4384e-07  2.4945e-07  0:03:02 1912

  iter  continuity  x-velocity  y-velocity     time/iter
    89  1.0753e-03  1.4243e-07  2.4671e-07  0:08:48 1911
    90  1.0595e-03  1.4124e-07  2.4411e-07  0:07:02 1910
    91  1.0487e-03  1.3982e-07  2.4151e-07  0:05:38 1909
    92  1.0447e-03  1.3868e-07  2.3901e-07  0:04:30 1908
    93  1.0340e-03  1.3744e-07  2.3652e-07  0:03:36 1907
    94  1.0225e-03  1.3609e-07  2.3398e-07  0:09:14 1906
    95  1.0126e-03  1.3498e-07  2.3149e-07  0:07:23 1905
    96  1.0096e-03  1.3394e-07  2.2911e-07  0:05:54 1904
    97  1.0008e-03  1.3280e-07  2.2682e-07  0:04:43 1903
    98  9.9113e-04  1.3167e-07  2.2449e-07  0:03:46 1902
    99  9.8852e-04  1.3105e-07  2.2232e-07  0:03:01 1901

  iter  continuity  x-velocity  y-velocity     time/iter
   100  9.7454e-04  1.3004e-07  2.2030e-07  0:08:45 1900
   101  9.7905e-04  1.2876e-07  2.1821e-07  0:07:00 1899
   102  9.6905e-04  1.2788e-07  2.1621e-07  0:05:35 1898
   103  9.5606e-04  1.2706e-07  2.1419e-07  0:04:28 1897
   104  9.5686e-04  1.2661e-07  2.1216e-07  0:03:34 1896
   105  9.4784e-04  1.2540e-07  2.1031e-07  0:09:10 1895
   106  9.4398e-04  1.2439e-07  2.0841e-07  0:07:20 1894
   107  9.3517e-04  1.2420e-07  2.0664e-07  0:05:52 1893
   108  9.2856e-04  1.2318e-07  2.0476e-07  0:04:41 1892
   109  9.1873e-04  1.2241e-07  2.0292e-07  0:10:03 1891
   110  9.2106e-04  1.2174e-07  2.0112e-07  0:08:02 1890

  iter  continuity  x-velocity  y-velocity     time/iter
   111  9.1299e-04  1.2091e-07  1.9945e-07  0:06:26 1889
   112  9.0336e-04  1.1994e-07  1.9780e-07  0:05:08 1888
   113  8.9974e-04  1.1884e-07  1.9614e-07  0:04:07 1887
   114  8.8934e-04  1.1800e-07  1.9458e-07  0:03:17 1886
   115  8.9334e-04  1.1674e-07  1.9292e-07  0:08:55 1885
   116  8.8910e-04  1.1629e-07  1.9150e-07  0:07:07 1884
   117  8.7544e-04  1.1598e-07  1.9001e-07  0:05:42 1883
   118  8.7318e-04  1.1498e-07  1.8855e-07  0:04:33 1882
   119  8.7535e-04  1.1474e-07  1.8704e-07  0:03:39 1881
   120  8.6735e-04  1.1362e-07  1.8563e-07  0:09:11 1880
   121  8.5784e-04  1.1327e-07  1.8421e-07  0:07:20 1879

  iter  continuity  x-velocity  y-velocity     time/iter
   122  8.6165e-04  1.1288e-07  1.8284e-07  0:05:52 1878
   123  8.5387e-04  1.1165e-07  1.8149e-07  0:04:42 1877
   124  8.6412e-04  1.1118e-07  1.8023e-07  0:03:45 1876
   125  8.4756e-04  1.1052e-07  1.7892e-07  0:09:15 1875
   126  8.4207e-04  1.0963e-07  1.7759e-07  0:07:24 1874
   127  8.3384e-04  1.0931e-07  1.7620e-07  0:05:55 1873
   128  8.3289e-04  1.0878e-07  1.7494e-07  0:04:44 1872
   129  8.2915e-04  1.0740e-07  1.7360e-07  0:03:47 1871
   130  8.2480e-04  1.0733e-07  1.7229e-07  0:03:01 1870
   131  8.2834e-04  1.0721e-07  1.7106e-07  0:08:39 1869
   132  8.2498e-04  1.0662e-07  1.6974e-07  0:06:55 1868

  iter  continuity  x-velocity  y-velocity     time/iter
   133  8.1818e-04  1.0590e-07  1.6858e-07  0:05:32 1867
   134  8.1103e-04  1.0542e-07  1.6737e-07  0:04:25 1866
   135  8.1755e-04  1.0486e-07  1.6612e-07  0:03:32 1865
   136  8.0413e-04  1.0411e-07  1.6502e-07  0:09:02 1864
   137  8.0068e-04  1.0346e-07  1.6392e-07  0:07:14 1863
   138  8.0162e-04  1.0328e-07  1.6279e-07  0:05:47 1862
   139  7.9725e-04  1.0311e-07  1.6174e-07  0:04:37 1861
   140  7.9443e-04  1.0213e-07  1.6071e-07  0:03:42 1860
   141  7.9137e-04  1.0171e-07  1.5968e-07  0:02:57 1859
   142  7.8688e-04  1.0150e-07  1.5876e-07  0:08:33 1858
   143  7.8784e-04  1.0123e-07  1.5775e-07  0:06:50 1857

  iter  continuity  x-velocity  y-velocity     time/iter
   144  7.7882e-04  1.0070e-07  1.5679e-07  0:05:28 1856
   145  7.7936e-04  1.0021e-07  1.5584e-07  0:04:22 1855
   146  7.7328e-04  1.0022e-07  1.5486e-07  0:03:30 1854
   147  7.7133e-04  9.9679e-08  1.5385e-07  0:08:58 1853
   148  7.7749e-04  9.9431e-08  1.5298e-07  0:07:10 1852
   149  7.7200e-04  9.8665e-08  1.5199e-07  0:05:44 1851
   150  7.7063e-04  9.8042e-08  1.5109e-07  0:04:35 1850
   151  7.7260e-04  9.7847e-08  1.5013e-07  0:03:40 1849
   152  7.6060e-04  9.7072e-08  1.4914e-07  0:02:56 1848
   153  7.5540e-04  9.6939e-08  1.4812e-07  0:08:30 1847
   154  7.5554e-04  9.6214e-08  1.4712e-07  0:06:48 1846

  iter  continuity  x-velocity  y-velocity     time/iter
   155  7.5624e-04  9.6425e-08  1.4622e-07  0:05:26 1845
   156  7.5568e-04  9.6280e-08  1.4532e-07  0:04:21 1844
   157  7.4518e-04  9.5677e-08  1.4437e-07  0:09:37 1843
   158  7.4543e-04  9.5219e-08  1.4344e-07  0:07:41 1842
   159  7.3983e-04  9.5064e-08  1.4256e-07  0:06:09 1841
   160  7.3750e-04  9.5009e-08  1.4161e-07  0:04:55 1840
   161  7.3814e-04  9.4657e-08  1.4076e-07  0:03:56 1839
   162  7.3199e-04  9.4383e-08  1.3978e-07  0:09:16 1838
   163  7.3099e-04  9.3495e-08  1.3890e-07  0:07:25 1837
   164  7.3000e-04  9.2970e-08  1.3804e-07  0:05:56 1836
   165  7.2445e-04  9.2105e-08  1.3714e-07  0:04:44 1835

  iter  continuity  x-velocity  y-velocity     time/iter
   166  7.1754e-04  9.1929e-08  1.3622e-07  0:03:47 1834
   167  7.2434e-04  9.1727e-08  1.3538e-07  0:03:02 1833
   168  7.1779e-04  9.1173e-08  1.3457e-07  0:08:32 1832
   169  7.1446e-04  9.0865e-08  1.3374e-07  0:06:49 1831
   170  7.0834e-04  9.0512e-08  1.3293e-07  0:05:27 1830
   171  7.0650e-04  9.0419e-08  1.3208e-07  0:04:22 1829
   172  7.1444e-04  9.0271e-08  1.3129e-07  0:03:29 1828
   173  7.0631e-04  9.0031e-08  1.3048e-07  0:08:53 1827
   174  7.0808e-04  8.9230e-08  1.2976e-07  0:07:06 1826
   175  7.0924e-04  8.9131e-08  1.2893e-07  0:05:41 1825
   176  7.0243e-04  8.8427e-08  1.2829e-07  0:04:32 1824

  iter  continuity  x-velocity  y-velocity     time/iter
   177  7.0273e-04  8.7844e-08  1.2760e-07  0:03:38 1823
   178  6.9656e-04  8.7693e-08  1.2685e-07  0:02:54 1822
   179  6.9369e-04  8.7275e-08  1.2613e-07  0:08:23 1821
   180  7.0101e-04  8.7188e-08  1.2552e-07  0:06:42 1820
   181  6.9381e-04  8.6980e-08  1.2489e-07  0:05:22 1819
   182  6.9280e-04  8.6555e-08  1.2421e-07  0:04:17 1818
   183  6.8855e-04  8.6453e-08  1.2358e-07  0:03:26 1817
   184  6.9784e-04  8.6432e-08  1.2299e-07  0:08:48 1816
   185  6.8697e-04  8.5730e-08  1.2236e-07  0:07:02 1815
   186  6.8262e-04  8.5624e-08  1.2177e-07  0:05:37 1814
   187  6.8592e-04  8.5641e-08  1.2113e-07  0:04:30 1813

  iter  continuity  x-velocity  y-velocity     time/iter
   188  6.8227e-04  8.4907e-08  1.2051e-07  0:03:36 1812
   189  6.8296e-04  8.4769e-08  1.1981e-07  0:02:52 1811
   190  6.7999e-04  8.4704e-08  1.1913e-07  0:08:20 1810
   191  6.7559e-04  8.4583e-08  1.1852e-07  0:06:40 1809
   192  6.7271e-04  8.4068e-08  1.1783e-07  0:05:20 1808
   193  6.6779e-04  8.3233e-08  1.1720e-07  0:04:16 1807
   194  6.6632e-04  8.3002e-08  1.1653e-07  0:03:24 1806
   195  6.6533e-04  8.2985e-08  1.1589e-07  0:08:44 1805
   196  6.6511e-04  8.2753e-08  1.1517e-07  0:06:59 1804
   197  6.5892e-04  8.2879e-08  1.1461e-07  0:05:35 1803
   198  6.5628e-04  8.2811e-08  1.1398e-07  0:04:28 1802

  iter  continuity  x-velocity  y-velocity     time/iter
   199  6.5732e-04  8.2061e-08  1.1338e-07  0:03:34 1801
   200  6.5569e-04  8.1589e-08  1.1281e-07  0:02:51 1800
   201  6.5302e-04  8.1191e-08  1.1231e-07  0:08:17 1799
   202  6.5450e-04  8.1056e-08  1.1172e-07  0:06:37 1798
   203  6.5628e-04  8.0881e-08  1.1120e-07  0:05:18 1797
   204  6.5190e-04  8.0770e-08  1.1070e-07  0:04:14 1796
   205  6.5792e-04  8.0551e-08  1.1011e-07  0:09:22 1795
   206  6.5003e-04  7.9974e-08  1.0962e-07  0:07:29 1794
   207  6.5020e-04  7.9758e-08  1.0903e-07  0:05:59 1793
   208  6.3725e-04  7.9688e-08  1.0852e-07  0:04:47 1792
   209  6.4118e-04  7.9549e-08  1.0786e-07  0:03:50 1791

  iter  continuity  x-velocity  y-velocity     time/iter
   210  6.4307e-04  7.9208e-08  1.0741e-07  0:09:02 1790
   211  6.3438e-04  7.8687e-08  1.0687e-07  0:07:13 1789
   212  6.4615e-04  7.8512e-08  1.0638e-07  0:05:46 1788
   213  6.3523e-04  7.8270e-08  1.0589e-07  0:04:37 1787
   214  6.3336e-04  7.8038e-08  1.0534e-07  0:03:41 1786
   215  6.4029e-04  7.8121e-08  1.0491e-07  0:08:54 1785
   216  6.3319e-04  7.7933e-08  1.0449e-07  0:07:07 1784
   217  6.3398e-04  7.8127e-08  1.0392e-07  0:05:41 1783
   218  6.2775e-04  7.7748e-08  1.0353e-07  0:04:33 1782
   219  6.3054e-04  7.7556e-08  1.0296e-07  0:03:38 1781
   220  6.3227e-04  7.7389e-08  1.0249e-07  0:02:54 1780

  iter  continuity  x-velocity  y-velocity     time/iter
   221  6.2686e-04  7.7272e-08  1.0208e-07  0:08:15 1779
   222  6.2961e-04  7.6831e-08  1.0158e-07  0:06:36 1778
   223  6.2973e-04  7.6942e-08  1.0118e-07  0:05:17 1777
   224  6.1995e-04  7.6824e-08  1.0073e-07  0:04:13 1776
   225  6.1809e-04  7.6454e-08  1.0031e-07  0:03:22 1775
   226  6.2216e-04  7.6709e-08  9.9819e-08  0:08:37 1774
   227  6.2268e-04  7.6340e-08  9.9440e-08  0:06:53 1773
   228  6.1559e-04  7.6125e-08  9.9008e-08  0:05:30 1772
   229  6.1340e-04  7.5747e-08  9.8464e-08  0:04:24 1771
   230  6.1515e-04  7.6242e-08  9.8091e-08  0:03:31 1770
   231  6.0871e-04  7.5930e-08  9.7683e-08  0:02:49 1769

  iter  continuity  x-velocity  y-velocity     time/iter
   232  6.1373e-04  7.5847e-08  9.7250e-08  0:08:09 1768
   233  6.1672e-04  7.5602e-08  9.6930e-08  0:06:31 1767
   234  6.1035e-04  7.5403e-08  9.6438e-08  0:05:12 1766
   235  6.1268e-04  7.5101e-08  9.6002e-08  0:04:10 1765
   236  6.0413e-04  7.4617e-08  9.5606e-08  0:03:20 1764
   237  6.0917e-04  7.4500e-08  9.5206e-08  0:08:32 1763
   238  6.0402e-04  7.4891e-08  9.4812e-08  0:06:50 1762
   239  6.0518e-04  7.5020e-08  9.4305e-08  0:05:27 1761
   240  5.9897e-04  7.4980e-08  9.3987e-08  0:04:22 1760
   241  6.0132e-04  7.4526e-08  9.3523e-08  0:03:29 1759
   242  6.0259e-04  7.3912e-08  9.3116e-08  0:02:47 1758

  iter  continuity  x-velocity  y-velocity     time/iter
   243  6.0646e-04  7.3993e-08  9.2732e-08  0:08:05 1757
   244  6.0337e-04  7.3464e-08  9.2393e-08  0:06:28 1756
   245  5.9787e-04  7.3312e-08  9.1961e-08  0:05:10 1755
   246  5.9348e-04  7.2980e-08  9.1574e-08  0:04:08 1754
   247  5.9707e-04  7.2728e-08  9.1193e-08  0:03:18 1753
   248  5.9571e-04  7.2670e-08  9.0789e-08  0:08:29 1752
   249  5.9196e-04  7.2545e-08  9.0421e-08  0:06:47 1751
   250  5.9610e-04  7.2307e-08  9.0109e-08  0:05:25 1750
   251  5.8775e-04  7.2117e-08  8.9754e-08  0:04:20 1749
   252  5.8501e-04  7.2169e-08  8.9348e-08  0:03:28 1748
   253  5.9696e-04  7.1871e-08  8.8999e-08  0:08:36 1747

  iter  continuity  x-velocity  y-velocity     time/iter
   254  5.8986e-04  7.1450e-08  8.8599e-08  0:06:52 1746
   255  5.8999e-04  7.1477e-08  8.8255e-08  0:05:30 1745
   256  5.9052e-04  7.1474e-08  8.7912e-08  0:04:24 1744
   257  5.8572e-04  7.1540e-08  8.7573e-08  0:03:31 1743
   258  5.8240e-04  7.1638e-08  8.7252e-08  0:08:37 1742
   259  5.8221e-04  7.1347e-08  8.6861e-08  0:06:53 1741
   260  5.8400e-04  7.0695e-08  8.6525e-08  0:05:30 1740
   261  5.7855e-04  7.0529e-08  8.6198e-08  0:04:24 1739
   262  5.7647e-04  7.0214e-08  8.5789e-08  0:03:31 1738
   263  5.8303e-04  7.0348e-08  8.5440e-08  0:08:36 1737
   264  5.8029e-04  7.0106e-08  8.5156e-08  0:06:53 1736

  iter  continuity  x-velocity  y-velocity     time/iter
   265  5.8111e-04  7.0230e-08  8.4786e-08  0:05:30 1735
   266  5.7424e-04  7.0271e-08  8.4476e-08  0:04:24 1734
   267  5.6819e-04  6.9783e-08  8.4100e-08  0:03:31 1733
   268  5.6893e-04  6.9716e-08  8.3782e-08  0:02:49 1732
   269  5.7414e-04  6.9687e-08  8.3392e-08  0:08:01 1731
   270  5.6868e-04  6.9436e-08  8.3099e-08  0:06:25 1730
   271  5.7090e-04  6.9264e-08  8.2743e-08  0:05:08 1729
   272  5.6236e-04  6.9175e-08  8.2431e-08  0:04:06 1728
   273  5.6715e-04  6.9117e-08  8.2056e-08  0:03:17 1727
   274  5.6608e-04  6.8720e-08  8.1794e-08  0:08:22 1726
   275  5.6380e-04  6.9195e-08  8.1383e-08  0:06:42 1725

  iter  continuity  x-velocity  y-velocity     time/iter
   276  5.5538e-04  6.8959e-08  8.1171e-08  0:05:21 1724
   277  5.6038e-04  6.8360e-08  8.0852e-08  0:04:17 1723
   278  5.6203e-04  6.7868e-08  8.0585e-08  0:03:25 1722
   279  5.6507e-04  6.8045e-08  8.0269e-08  0:02:44 1721
   280  5.5920e-04  6.8382e-08  8.0014e-08  0:07:55 1720
   281  5.6769e-04  6.8152e-08  7.9678e-08  0:06:20 1719
   282  5.5736e-04  6.7987e-08  7.9499e-08  0:05:04 1718
   283  5.5260e-04  6.7635e-08  7.9222e-08  0:04:03 1717
   284  5.5245e-04  6.7437e-08  7.8939e-08  0:03:14 1716
   285  5.6558e-04  6.7639e-08  7.8646e-08  0:08:18 1715
   286  5.5854e-04  6.7221e-08  7.8447e-08  0:06:38 1714

  iter  continuity  x-velocity  y-velocity     time/iter
   287  5.5157e-04  6.7332e-08  7.8176e-08  0:05:19 1713
   288  5.5744e-04  6.7166e-08  7.7859e-08  0:04:15 1712
   289  5.5482e-04  6.6664e-08  7.7640e-08  0:03:24 1711
   290  5.4917e-04  6.6530e-08  7.7318e-08  0:02:43 1710
   291  5.4758e-04  6.6175e-08  7.6996e-08  0:07:52 1709
   292  5.5114e-04  6.6306e-08  7.6719e-08  0:06:17 1708
   293  5.4832e-04  6.6301e-08  7.6405e-08  0:05:02 1707
   294  5.4869e-04  6.5775e-08  7.6167e-08  0:04:01 1706
   295  5.4519e-04  6.5735e-08  7.5903e-08  0:03:13 1705
   296  5.4849e-04  6.5604e-08  7.5617e-08  0:02:34 1704
   297  5.4349e-04  6.5211e-08  7.5307e-08  0:07:44 1703

  iter  continuity  x-velocity  y-velocity     time/iter
   298  5.4039e-04  6.4985e-08  7.5030e-08  0:06:11 1702
   299  5.3969e-04  6.4747e-08  7.4762e-08  0:04:57 1701
   300  5.3728e-04  6.4805e-08  7.4441e-08  0:03:57 1700
   301  5.3796e-04  6.4855e-08  7.4228e-08  0:03:10 1699
   302  5.3865e-04  6.4935e-08  7.3937e-08  0:08:11 1698
   303  5.3914e-04  6.4826e-08  7.3643e-08  0:06:33 1697
   304  5.4887e-04  6.5082e-08  7.3463e-08  0:05:14 1696
   305  5.4345e-04  6.4912e-08  7.3186e-08  0:04:11 1695
   306  5.3799e-04  6.5245e-08  7.2951e-08  0:09:00 1694
   307  5.3709e-04  6.4893e-08  7.2635e-08  0:07:11 1693
   308  5.3556e-04  6.4879e-08  7.2323e-08  0:05:45 1692

  iter  continuity  x-velocity  y-velocity     time/iter
   309  5.3751e-04  6.4934e-08  7.2094e-08  0:04:36 1691
   310  5.3605e-04  6.4402e-08  7.1802e-08  0:03:40 1690
   311  5.4300e-04  6.4467e-08  7.1736e-08  0:02:56 1689
   312  5.3625e-04  6.4278e-08  7.1344e-08  0:07:59 1688
   313  5.3116e-04  6.4176e-08  7.1114e-08  0:06:23 1687
   314  5.2626e-04  6.4284e-08  7.0834e-08  0:05:06 1686
   315  5.3467e-04  6.4003e-08  7.0534e-08  0:04:05 1685
   316  5.3294e-04  6.4361e-08  7.0301e-08  0:03:16 1684
   317  5.2269e-04  6.4258e-08  7.0115e-08  0:08:13 1683
   318  5.2575e-04  6.4421e-08  6.9844e-08  0:06:34 1682
   319  5.2468e-04  6.3893e-08  6.9508e-08  0:05:15 1681

  iter  continuity  x-velocity  y-velocity     time/iter
   320  5.1931e-04  6.4301e-08  6.9264e-08  0:04:12 1680
   321  5.2639e-04  6.3778e-08  6.8984e-08  0:03:21 1679
   322  5.2936e-04  6.3876e-08  6.8803e-08  0:08:17 1678
   323  5.2266e-04  6.3425e-08  6.8579e-08  0:06:37 1677
   324  5.1683e-04  6.3674e-08  6.8324e-08  0:05:17 1676
   325  5.2264e-04  6.3867e-08  6.8080e-08  0:04:14 1675
   326  5.2060e-04  6.3439e-08  6.7864e-08  0:03:23 1674
   327  5.1760e-04  6.2920e-08  6.7585e-08  0:02:42 1673
   328  5.2029e-04  6.2551e-08  6.7359e-08  0:07:44 1672
   329  5.1436e-04  6.2337e-08  6.7134e-08  0:06:11 1671
   330  5.2043e-04  6.2058e-08  6.6784e-08  0:04:57 1670

  iter  continuity  x-velocity  y-velocity     time/iter
   331  5.1722e-04  6.2018e-08  6.6557e-08  0:03:57 1669
   332  5.1722e-04  6.2209e-08  6.6401e-08  0:03:10 1668
   333  5.1573e-04  6.1950e-08  6.6209e-08  0:08:05 1667
   334  5.1551e-04  6.1992e-08  6.5953e-08  0:06:28 1666
   335  5.1105e-04  6.1793e-08  6.5712e-08  0:05:10 1665
   336  5.1452e-04  6.1681e-08  6.5475e-08  0:04:08 1664
   337  5.1271e-04  6.1785e-08  6.5282e-08  0:03:18 1663
   338  5.0907e-04  6.1721e-08  6.5036e-08  0:02:38 1662
   339  5.0535e-04  6.2047e-08  6.4756e-08  0:07:39 1661
   340  5.0489e-04  6.1436e-08  6.4546e-08  0:06:07 1660
   341  5.0068e-04  6.1255e-08  6.4334e-08  0:04:53 1659

  iter  continuity  x-velocity  y-velocity     time/iter
   342  5.0396e-04  6.1353e-08  6.4045e-08  0:03:55 1658
   343  5.1152e-04  6.1069e-08  6.3860e-08  0:03:08 1657
   344  5.1094e-04  6.1231e-08  6.3735e-08  0:02:30 1656
   345  5.0026e-04  6.0750e-08  6.3454e-08  0:07:31 1655
   346  4.9710e-04  6.0783e-08  6.3240e-08  0:06:00 1654
   347  5.0065e-04  6.0875e-08  6.2988e-08  0:04:48 1653
   348  5.1022e-04  6.0670e-08  6.2857e-08  0:03:50 1652
   349  4.9916e-04  6.0680e-08  6.2669e-08  0:03:04 1651
   350  4.9704e-04  6.0586e-08  6.2372e-08  0:07:57 1650
   351  4.9951e-04  6.0759e-08  6.2206e-08  0:06:22 1649
   352  4.9802e-04  6.0583e-08  6.2023e-08  0:05:05 1648

  iter  continuity  x-velocity  y-velocity     time/iter
   353  4.9578e-04  6.0715e-08  6.1791e-08  0:04:04 1647
   354  5.0083e-04  5.9980e-08  6.1511e-08  0:08:44 1646
   355  4.9874e-04  6.0334e-08  6.1351e-08  0:06:59 1645
   356  4.9982e-04  6.0178e-08  6.1203e-08  0:05:35 1644
   357  4.9480e-04  6.0219e-08  6.1031e-08  0:04:28 1643
   358  5.0077e-04  6.0057e-08  6.0755e-08  0:03:34 1642
   359  4.9315e-04  5.9734e-08  6.0548e-08  0:02:51 1641
   360  4.8943e-04  5.9849e-08  6.0335e-08  0:07:45 1640
   361  4.9565e-04  5.9516e-08  6.0153e-08  0:06:12 1639
   362  4.8887e-04  5.9455e-08  5.9951e-08  0:04:57 1638
   363  4.8994e-04  5.9695e-08  5.9754e-08  0:03:58 1637

  iter  continuity  x-velocity  y-velocity     time/iter
   364  4.9436e-04  5.8663e-08  5.9500e-08  0:03:10 1636
   365  4.9262e-04  5.8770e-08  5.9357e-08  0:07:59 1635
   366  4.8849e-04  5.8688e-08  5.9180e-08  0:06:23 1634
   367  4.8933e-04  5.8803e-08  5.9004e-08  0:05:06 1633
   368  4.8851e-04  5.9303e-08  5.8841e-08  0:04:05 1632
   369  4.8125e-04  5.9169e-08  5.8627e-08  0:03:16 1631
   370  4.8887e-04  5.9356e-08  5.8384e-08  0:02:36 1630
   371  4.8645e-04  5.8729e-08  5.8276e-08  0:07:31 1629
   372  4.8291e-04  5.8660e-08  5.8100e-08  0:06:00 1628
   373  4.7851e-04  5.8471e-08  5.7910e-08  0:04:48 1627
   374  4.8159e-04  5.8287e-08  5.7685e-08  0:03:50 1626

  iter  continuity  x-velocity  y-velocity     time/iter
   375  4.8742e-04  5.8152e-08  5.7569e-08  0:03:04 1625
   376  4.8532e-04  5.7795e-08  5.7394e-08  0:07:52 1624
   377  4.7825e-04  5.7976e-08  5.7197e-08  0:06:17 1623
   378  4.7603e-04  5.7860e-08  5.6963e-08  0:05:02 1622
   379  4.7461e-04  5.7940e-08  5.6815e-08  0:04:01 1621
   380  4.7706e-04  5.8263e-08  5.6660e-08  0:03:13 1620
   381  4.8407e-04  5.8042e-08  5.6500e-08  0:02:34 1619
   382  4.7997e-04  5.7880e-08  5.6325e-08  0:07:27 1618
   383  4.8078e-04  5.8061e-08  5.6175e-08  0:05:57 1617
   384  4.7674e-04  5.8142e-08  5.6041e-08  0:04:46 1616
   385  4.7505e-04  5.8319e-08  5.5888e-08  0:03:48 1615

  iter  continuity  x-velocity  y-velocity     time/iter
   386  4.6964e-04  5.8525e-08  5.5759e-08  0:03:03 1614
   387  4.8765e-04  5.7725e-08  5.5536e-08  0:07:49 1613
   388  4.7266e-04  5.7584e-08  5.5373e-08  0:06:15 1612
   389  4.7944e-04  5.8020e-08  5.5247e-08  0:05:00 1611
   390  4.7273e-04  5.8301e-08  5.5072e-08  0:03:59 1610
   391  4.7417e-04  5.8288e-08  5.4935e-08  0:03:11 1609
   392  4.7534e-04  5.8147e-08  5.4757e-08  0:02:33 1608
   393  4.7323e-04  5.7737e-08  5.4656e-08  0:07:24 1607
   394  4.7169e-04  5.7357e-08  5.4526e-08  0:05:55 1606
   395  4.6937e-04  5.6810e-08  5.4295e-08  0:04:44 1605
   396  4.6505e-04  5.7110e-08  5.4194e-08  0:03:47 1604

  iter  continuity  x-velocity  y-velocity     time/iter
   397  4.6430e-04  5.7208e-08  5.3939e-08  0:03:01 1603
   398  4.7073e-04  5.6930e-08  5.3800e-08  0:07:45 1602
   399  4.6504e-04  5.6976e-08  5.3704e-08  0:06:12 1601
   400  4.6201e-04  5.6999e-08  5.3490e-08  0:04:57 1600
   401  4.6952e-04  5.6665e-08  5.3294e-08  0:03:58 1599
   402  4.7081e-04  5.6649e-08  5.3218e-08  0:08:30 1598
   403  4.6539e-04  5.6878e-08  5.3124e-08  0:06:48 1597
   404  4.6926e-04  5.6937e-08  5.2967e-08  0:05:26 1596
   405  4.6400e-04  5.7039e-08  5.2863e-08  0:04:20 1595
   406  4.6699e-04  5.7431e-08  5.2668e-08  0:03:28 1594
   407  4.6148e-04  5.7346e-08  5.2473e-08  0:08:05 1593

  iter  continuity  x-velocity  y-velocity     time/iter
   408  4.6196e-04  5.7232e-08  5.2360e-08  0:06:28 1592
   409  4.6235e-04  5.7115e-08  5.2221e-08  0:05:10 1591
   410  4.5722e-04  5.6812e-08  5.1995e-08  0:04:08 1590
   411  4.5488e-04  5.6863e-08  5.1917e-08  0:03:18 1589
   412  4.6245e-04  5.7104e-08  5.1765e-08  0:07:56 1588
   413  4.6591e-04  5.6925e-08  5.1597e-08  0:06:21 1587
   414  4.6008e-04  5.6279e-08  5.1478e-08  0:05:04 1586
   415  4.6210e-04  5.6179e-08  5.1359e-08  0:04:03 1585
   416  4.5893e-04  5.5882e-08  5.1149e-08  0:03:15 1584
   417  4.5652e-04  5.5944e-08  5.1056e-08  0:02:36 1583
   418  4.6900e-04  5.5943e-08  5.0850e-08  0:07:21 1582

  iter  continuity  x-velocity  y-velocity     time/iter
   419  4.5837e-04  5.5509e-08  5.0756e-08  0:05:52 1581
   420  4.5881e-04  5.5471e-08  5.0498e-08  0:04:42 1580
   421  4.5801e-04  5.5767e-08  5.0422e-08  0:03:45 1579
   422  4.5259e-04  5.6020e-08  5.0258e-08  0:03:00 1578
   423  4.4984e-04  5.5873e-08  5.0116e-08  0:07:39 1577
   424  4.4268e-04  5.5655e-08  4.9915e-08  0:06:07 1576
   425  4.4929e-04  5.5516e-08  4.9739e-08  0:04:54 1575
   426  4.4791e-04  5.5454e-08  4.9574e-08  0:03:55 1574
   427  4.4605e-04  5.5523e-08  4.9430e-08  0:03:08 1573
   428  4.5052e-04  5.5364e-08  4.9334e-08  0:02:30 1572
   429  4.5145e-04  5.5152e-08  4.9259e-08  0:07:14 1571

  iter  continuity  x-velocity  y-velocity     time/iter
   430  4.5239e-04  5.4609e-08  4.9043e-08  0:05:47 1570
   431  4.3792e-04  5.4587e-08  4.8976e-08  0:04:38 1569
   432  4.3981e-04  5.4662e-08  4.8724e-08  0:03:42 1568
   433  4.5017e-04  5.4573e-08  4.8534e-08  0:02:57 1567
   434  4.5005e-04  5.4586e-08  4.8464e-08  0:02:22 1566
   435  4.5156e-04  5.4659e-08  4.8342e-08  0:07:06 1565
   436  4.4593e-04  5.4532e-08  4.8238e-08  0:05:41 1564
   437  4.4490e-04  5.4608e-08  4.8133e-08  0:04:33 1563
   438  4.5766e-04  5.4605e-08  4.8018e-08  0:03:38 1562
   439  4.5154e-04  5.5040e-08  4.7881e-08  0:02:54 1561
   440  4.5293e-04  5.4624e-08  4.7829e-08  0:07:31 1560

  iter  continuity  x-velocity  y-velocity     time/iter
   441  4.4750e-04  5.3957e-08  4.7705e-08  0:06:01 1559
   442  4.4739e-04  5.4043e-08  4.7582e-08  0:04:48 1558
   443  4.3541e-04  5.4103e-08  4.7804e-08  0:03:51 1557
   444  4.3237e-04  5.4278e-08  4.7733e-08  0:03:04 1556
   445  4.3710e-04  5.4067e-08  4.7107e-08  0:02:27 1555
   446  4.4239e-04  5.4127e-08  4.6769e-08  0:07:09 1554
   447  4.4558e-04  5.4379e-08  4.6691e-08  0:05:43 1553
   448  4.4791e-04  5.4423e-08  4.6687e-08  0:04:34 1552
   449  4.3942e-04  5.4370e-08  4.6627e-08  0:03:39 1551
   450  4.4545e-04  5.4465e-08  4.6515e-08  0:08:05 1550
   451  4.4111e-04  5.4404e-08  4.6505e-08  0:06:28 1549

  iter  continuity  x-velocity  y-velocity     time/iter
   452  4.4517e-04  5.4305e-08  4.6303e-08  0:05:10 1548
   453  4.4533e-04  5.4231e-08  4.6220e-08  0:04:08 1547
   454  4.4207e-04  5.4339e-08  4.6131e-08  0:03:18 1546
   455  4.4127e-04  5.4243e-08  4.5957e-08  0:07:47 1545
   456  4.3381e-04  5.3951e-08  4.5791e-08  0:06:14 1544
   457  4.2948e-04  5.3851e-08  4.5996e-08  0:04:59 1543
   458  4.3734e-04  5.4240e-08  4.5618e-08  0:03:59 1542
   459  4.2884e-04  5.4262e-08  4.5717e-08  0:03:11 1541
   460  4.1964e-04  5.3927e-08  4.5718e-08  0:02:33 1540
   461  4.3042e-04  5.3921e-08  4.5035e-08  0:07:10 1539
   462  4.3501e-04  5.3990e-08  4.4813e-08  0:05:44 1538

  iter  continuity  x-velocity  y-velocity     time/iter
   463  4.3577e-04  5.3768e-08  4.4702e-08  0:04:35 1537
   464  4.4388e-04  5.3312e-08  4.4688e-08  0:03:40 1536
   465  4.4346e-04  5.3597e-08  4.4593e-08  0:02:56 1535
   466  4.3393e-04  5.3810e-08  4.4665e-08  0:02:20 1534
   467  4.2132e-04  5.3475e-08  4.4736e-08  0:06:59 1533
   468  4.2146e-04  5.3751e-08  4.4668e-08  0:05:35 1532
   469  4.2945e-04  5.3633e-08  4.4106e-08  0:04:28 1531
   470  4.2718e-04  5.3341e-08  4.4208e-08  0:03:34 1530
   471  4.2623e-04  5.2817e-08  4.3757e-08  0:02:51 1529
   472  4.3471e-04  5.2899e-08  4.3514e-08  0:07:22 1528
   473  4.2900e-04  5.3023e-08  4.3544e-08  0:05:54 1527

  iter  continuity  x-velocity  y-velocity     time/iter
   474  4.2965e-04  5.2804e-08  4.3746e-08  0:04:43 1526
   475  4.2803e-04  5.3096e-08  4.3402e-08  0:03:46 1525
   476  4.2476e-04  5.2697e-08  4.3498e-08  0:03:01 1524
   477  4.2923e-04  5.3019e-08  4.3102e-08  0:02:24 1523
   478  4.3258e-04  5.3224e-08  4.2951e-08  0:07:00 1522
   479  4.2562e-04  5.3167e-08  4.2822e-08  0:05:36 1521
   480  4.2140e-04  5.2550e-08  4.2989e-08  0:04:28 1520
   481  4.1722e-04  5.2411e-08  4.2682e-08  0:03:35 1519
   482  4.3246e-04  5.2421e-08  4.2424e-08  0:02:52 1518
   483  4.3310e-04  5.2154e-08  4.2339e-08  0:02:17 1517
   484  4.2055e-04  5.1788e-08  4.2625e-08  0:06:53 1516

  iter  continuity  x-velocity  y-velocity     time/iter
   485  4.1937e-04  5.2160e-08  4.2556e-08  0:05:30 1515
   486  4.2228e-04  5.2003e-08  4.2078e-08  0:04:24 1514
   487  4.1758e-04  5.2242e-08  4.2129e-08  0:03:31 1513
   488  4.1012e-04  5.2327e-08  4.2178e-08  0:02:49 1512
   489  4.1412e-04  5.2218e-08  4.2060e-08  0:02:15 1511
   490  4.0928e-04  5.2219e-08  4.1904e-08  0:01:48 1510
   491  4.1345e-04  5.2258e-08  4.1290e-08  0:06:28 1509
   492  4.2204e-04  5.2288e-08  4.1099e-08  0:05:10 1508
   493  4.0941e-04  5.2332e-08  4.1256e-08  0:04:08 1507
   494  4.0555e-04  5.2117e-08  4.1330e-08  0:03:18 1506
   495  4.1787e-04  5.1744e-08  4.0822e-08  0:07:39 1505

  iter  continuity  x-velocity  y-velocity     time/iter
   496  4.1675e-04  5.1849e-08  4.0931e-08  0:06:07 1504
   497  4.2077e-04  5.1862e-08  4.0659e-08  0:04:54 1503
   498  4.1732e-04  5.1580e-08  4.0878e-08  0:03:55 1502
   499  4.1908e-04  5.1947e-08  4.0586e-08  0:03:08 1501
   500  4.1088e-04  5.1895e-08  4.0794e-08  0:02:30 1500
   501  4.1972e-04  5.1963e-08  4.0386e-08  0:07:00 1499
   502  4.2475e-04  5.1561e-08  4.0239e-08  0:05:36 1498
   503  4.1939e-04  5.1532e-08  4.0514e-08  0:04:28 1497
   504  4.2272e-04  5.1216e-08  4.0217e-08  0:03:34 1496
   505  4.2582e-04  5.1133e-08  4.0035e-08  0:02:51 1495
   506  4.1674e-04  5.1188e-08  3.9951e-08  0:02:17 1494

  iter  continuity  x-velocity  y-velocity     time/iter
   507  4.1379e-04  5.0940e-08  3.9988e-08  0:06:48 1493
   508  4.1079e-04  5.1194e-08  4.0103e-08  0:05:26 1492
   509  4.0373e-04  5.1217e-08  4.0037e-08  0:04:21 1491
   510  4.0337e-04  5.1397e-08  3.9906e-08  0:03:29 1490
   511  3.9687e-04  5.1032e-08  3.9755e-08  0:02:47 1489
   512  3.9866e-04  5.0704e-08  3.9519e-08  0:02:13 1488
   513  4.1797e-04  5.0270e-08  3.8982e-08  0:06:44 1487
   514  4.1766e-04  5.0936e-08  3.8890e-08  0:05:23 1486
   515  4.1525e-04  5.0526e-08  3.9217e-08  0:04:18 1485
   516  4.1630e-04  5.0667e-08  3.9269e-08  0:03:26 1484
   517  4.1354e-04  5.0792e-08  3.8983e-08  0:02:45 1483

  iter  continuity  x-velocity  y-velocity     time/iter
   518  4.1009e-04  5.1064e-08  3.9038e-08  0:02:12 1482
   519  4.0230e-04  5.1350e-08  3.9019e-08  0:06:42 1481
   520  4.0340e-04  5.1881e-08  3.8840e-08  0:05:21 1480
   521  4.0883e-04  5.1516e-08  3.8716e-08  0:04:17 1479
   522  4.0052e-04  5.1133e-08  3.8621e-08  0:03:25 1478
   523  4.0839e-04  5.0808e-08  3.8081e-08  0:02:44 1477
   524  4.2616e-04  5.0827e-08  3.7902e-08  0:02:11 1476
   525  4.2761e-04  5.0673e-08  3.8112e-08  0:06:40 1475
   526  4.1771e-04  5.0939e-08  3.8182e-08  0:05:20 1474
   527  4.0647e-04  5.1015e-08  3.8380e-08  0:04:16 1473
   528  4.0797e-04  5.0707e-08  3.8393e-08  0:03:24 1472

  iter  continuity  x-velocity  y-velocity     time/iter
   529  3.9571e-04  5.0731e-08  3.8252e-08  0:02:43 1471
   530  3.9610e-04  5.0536e-08  3.8001e-08  0:02:11 1470
   531  4.0168e-04  5.0606e-08  3.7851e-08  0:06:38 1469
   532  4.0417e-04  5.1008e-08  3.7328e-08  0:05:18 1468
   533  4.0854e-04  5.1034e-08  3.7510e-08  0:04:14 1467
   534  3.9087e-04  5.0685e-08  3.7661e-08  0:03:23 1466
   535  3.8841e-04  5.0850e-08  3.7514e-08  0:02:43 1465
   536  3.9884e-04  5.1035e-08  3.7321e-08  0:02:10 1464
   537  4.1156e-04  5.1076e-08  3.6892e-08  0:01:44 1463
   538  4.0271e-04  5.1067e-08  3.7109e-08  0:06:16 1462
   539  3.9315e-04  5.1344e-08  3.7156e-08  0:05:00 1461

  iter  continuity  x-velocity  y-velocity     time/iter
   540  3.9030e-04  5.1127e-08  3.7076e-08  0:04:00 1460
   541  3.9480e-04  5.1027e-08  3.6986e-08  0:03:12 1459
   542  3.9418e-04  5.0864e-08  3.6862e-08  0:02:33 1458
   543  3.9998e-04  5.0336e-08  3.6725e-08  0:06:54 1457
   544  4.1659e-04  5.0651e-08  3.6356e-08  0:05:31 1456
   545  4.0873e-04  5.0225e-08  3.6539e-08  0:04:25 1455
   546  3.9772e-04  4.9939e-08  3.6661e-08  0:03:32 1454
   547  3.8872e-04  4.9924e-08  3.6570e-08  0:02:49 1453
   548  3.9019e-04  4.9865e-08  3.6389e-08  0:02:15 1452
   549  4.0049e-04  5.0033e-08  3.5889e-08  0:06:38 1451
   550  3.9928e-04  4.9758e-08  3.6094e-08  0:05:18 1450

  iter  continuity  x-velocity  y-velocity     time/iter
   551  3.9475e-04  4.9678e-08  3.6182e-08  0:04:15 1449
   552  3.8928e-04  5.0451e-08  3.6151e-08  0:03:24 1448
   553  4.0465e-04  4.9709e-08  3.5605e-08  0:02:43 1447
   554  4.0212e-04  5.0044e-08  3.5746e-08  0:02:10 1446
   555  3.9711e-04  4.9869e-08  3.5876e-08  0:01:44 1445
   556  3.9138e-04  4.9694e-08  3.5831e-08  0:06:12 1444
   557  3.8910e-04  4.9515e-08  3.5678e-08  0:04:57 1443
   558  3.8611e-04  4.9652e-08  3.5503e-08  0:03:58 1442
   559  3.8748e-04  4.9594e-08  3.5404e-08  0:03:10 1441
   560  4.0168e-04  4.9456e-08  3.4968e-08  0:02:32 1440
   561  4.0241e-04  4.9718e-08  3.4876e-08  0:02:01 1439

  iter  continuity  x-velocity  y-velocity     time/iter
   562  3.8927e-04  4.9550e-08  3.5183e-08  0:06:25 1438
   563  3.8861e-04  4.9289e-08  3.5202e-08  0:05:08 1437
   564  3.8291e-04  4.9505e-08  3.5203e-08  0:04:06 1436
   565  3.9294e-04  4.9547e-08  3.5059e-08  0:03:17 1435
   566  3.7984e-04  4.9533e-08  3.5025e-08  0:02:37 1434
   567  3.7804e-04  4.9745e-08  3.4824e-08  0:02:06 1433
   568  3.8962e-04  4.9174e-08  3.4684e-08  0:01:40 1432
   569  3.8346e-04  4.8932e-08  3.4722e-08  0:06:06 1431
   570  3.8825e-04  4.9163e-08  3.4607e-08  0:04:53 1430
   571  3.8612e-04  4.9112e-08  3.4604e-08  0:03:54 1429
   572  3.8580e-04  4.9401e-08  3.4547e-08  0:03:07 1428

  iter  continuity  x-velocity  y-velocity     time/iter
   573  3.8281e-04  4.9121e-08  3.4363e-08  0:02:30 1427
   574  3.8981e-04  4.9134e-08  3.4303e-08  0:02:00 1426
   575  3.8401e-04  4.8882e-08  3.4288e-08  0:06:21 1425
   576  3.8613e-04  4.8815e-08  3.4170e-08  0:05:04 1424
   577  3.9343e-04  4.8792e-08  3.3730e-08  0:04:03 1423
   578  4.0187e-04  4.9137e-08  3.3669e-08  0:03:14 1422
   579  4.0575e-04  4.9232e-08  3.3723e-08  0:02:35 1421
   580  3.8876e-04  4.9107e-08  3.4033e-08  0:02:04 1420
   581  3.8054e-04  4.9005e-08  3.4011e-08  0:06:23 1419
   582  3.7548e-04  4.9133e-08  3.3970e-08  0:05:06 1418
   583  3.8138e-04  4.9034e-08  3.3775e-08  0:04:05 1417

  iter  continuity  x-velocity  y-velocity     time/iter
   584  3.7241e-04  4.8847e-08  3.3587e-08  0:03:16 1416
   585  3.7341e-04  4.8826e-08  3.3348e-08  0:02:37 1415
   586  3.8140e-04  4.8657e-08  3.3267e-08  0:02:05 1414
   587  3.7786e-04  4.9028e-08  3.3243e-08  0:01:40 1413
   588  3.8340e-04  4.8973e-08  3.3184e-08  0:06:02 1412
   589  3.8250e-04  4.8688e-08  3.3122e-08  0:04:50 1411
   590  3.7958e-04  4.8287e-08  3.3113e-08  0:03:52 1410
   591  3.8301e-04  4.7901e-08  3.3024e-08  0:03:05 1409
   592  3.7186e-04  4.8076e-08  3.2950e-08  0:02:28 1408
   593  3.7676e-04  4.8228e-08  3.2780e-08  0:06:40 1407
   594  3.8356e-04  4.8332e-08  3.2744e-08  0:05:20 1406

  iter  continuity  x-velocity  y-velocity     time/iter
   595  3.7733e-04  4.8025e-08  3.2659e-08  0:04:15 1405
   596  3.6829e-04  4.7998e-08  3.2603e-08  0:03:24 1404
   597  3.6849e-04  4.8528e-08  3.2492e-08  0:02:43 1403
   598  3.6951e-04  4.8575e-08  3.2455e-08  0:02:11 1402
   599  3.8404e-04  4.8501e-08  3.2311e-08  0:01:44 1401
   600  3.8255e-04  4.8221e-08  3.2238e-08  0:06:03 1400
   601  3.8329e-04  4.8696e-08  3.2237e-08  0:04:51 1399
   602  3.7766e-04  4.8107e-08  3.2223e-08  0:03:52 1398
   603  3.6929e-04  4.8309e-08  3.2101e-08  0:03:06 1397
   604  3.8176e-04  4.8322e-08  3.2027e-08  0:02:28 1396
   605  3.8145e-04  4.8503e-08  3.1998e-08  0:01:59 1395

  iter  continuity  x-velocity  y-velocity     time/iter
   606  3.7507e-04  4.8755e-08  3.1906e-08  0:06:14 1394
   607  3.6717e-04  4.8669e-08  3.1891e-08  0:04:59 1393
   608  3.7539e-04  4.8942e-08  3.1738e-08  0:03:59 1392
   609  3.6736e-04  4.9530e-08  3.1696e-08  0:03:11 1391
   610  3.7472e-04  4.9271e-08  3.1560e-08  0:02:33 1390
   611  3.6970e-04  4.8981e-08  3.1504e-08  0:02:02 1389
   612  3.6564e-04  4.9038e-08  3.1397e-08  0:01:38 1388
   613  3.7252e-04  4.8613e-08  3.1308e-08  0:05:55 1387
   614  3.8080e-04  4.8790e-08  3.1291e-08  0:04:44 1386
   615  3.7136e-04  4.8824e-08  3.1340e-08  0:03:47 1385
   616  3.7995e-04  4.8587e-08  3.1333e-08  0:03:02 1384

  iter  continuity  x-velocity  y-velocity     time/iter
   617  3.7781e-04  4.8701e-08  3.1301e-08  0:02:25 1383
   618  3.8259e-04  4.8701e-08  3.1252e-08  0:01:56 1382
   619  3.8221e-04  4.8593e-08  3.1276e-08  0:01:33 1381
   620  3.8536e-04  4.8317e-08  3.1180e-08  0:05:50 1380
   621  3.7960e-04  4.8166e-08  3.1136e-08  0:04:40 1379
   622  3.7933e-04  4.8081e-08  3.1074e-08  0:03:44 1378
   623  3.7876e-04  4.8035e-08  3.0975e-08  0:02:59 1377
   624  3.6996e-04  4.7557e-08  3.0874e-08  0:02:23 1376
   625  3.7790e-04  4.7244e-08  3.0747e-08  0:01:54 1375
   626  3.7384e-04  4.7352e-08  3.0797e-08  0:06:06 1374
   627  3.7098e-04  4.7292e-08  3.0675e-08  0:04:53 1373

  iter  continuity  x-velocity  y-velocity     time/iter
   628  3.7042e-04  4.7417e-08  3.0646e-08  0:03:54 1372
   629  3.7065e-04  4.7823e-08  3.0536e-08  0:03:07 1371
   630  3.7014e-04  4.7986e-08  3.0419e-08  0:02:30 1370
   631  3.6587e-04  4.8021e-08  3.0300e-08  0:02:00 1369
   632  3.6384e-04  4.7722e-08  3.0231e-08  0:01:36 1368
   633  3.6896e-04  4.7846e-08  3.0096e-08  0:05:50 1367
   634  3.6894e-04  4.7588e-08  3.0111e-08  0:04:40 1366
   635  3.7629e-04  4.7526e-08  3.0059e-08  0:03:44 1365
   636  3.7332e-04  4.7617e-08  3.0012e-08  0:02:59 1364
   637  3.6971e-04  4.7381e-08  3.0069e-08  0:02:23 1363
   638  3.7672e-04  4.7122e-08  2.9988e-08  0:06:27 1362

  iter  continuity  x-velocity  y-velocity     time/iter
   639  3.6697e-04  4.6795e-08  2.9909e-08  0:05:09 1361
   640  3.7056e-04  4.6876e-08  2.9829e-08  0:04:07 1360
   641  3.7156e-04  4.7001e-08  2.9791e-08  0:03:18 1359
   642  3.7323e-04  4.7012e-08  2.9740e-08  0:02:38 1358
   643  3.7014e-04  4.7005e-08  2.9722e-08  0:02:06 1357
   644  3.7497e-04  4.7092e-08  2.9632e-08  0:06:12 1356
   645  3.7147e-04  4.7678e-08  2.9596e-08  0:04:57 1355
   646  3.6440e-04  4.7314e-08  2.9584e-08  0:03:58 1354
   647  3.6498e-04  4.7160e-08  2.9470e-08  0:03:10 1353
   648  3.6649e-04  4.7209e-08  2.9449e-08  0:02:32 1352
   649  3.6893e-04  4.7488e-08  2.9414e-08  0:02:01 1351

  iter  continuity  x-velocity  y-velocity     time/iter
   650  3.6352e-04  4.7021e-08  2.9333e-08  0:01:37 1350
   651  3.6956e-04  4.6911e-08  2.9261e-08  0:05:47 1349
   652  3.6910e-04  4.7394e-08  2.9288e-08  0:04:38 1348
   653  3.6340e-04  4.7032e-08  2.9222e-08  0:03:42 1347
   654  3.5717e-04  4.6909e-08  2.9079e-08  0:02:57 1346
   655  3.5645e-04  4.6829e-08  2.8907e-08  0:02:22 1345
   656  3.6717e-04  4.6770e-08  2.8785e-08  0:01:53 1344
   657  3.6525e-04  4.6748e-08  2.8799e-08  0:01:31 1343
   658  3.6293e-04  4.6688e-08  2.8779e-08  0:05:41 1342
   659  3.7648e-04  4.6302e-08  2.8837e-08  0:04:33 1341
   660  3.6765e-04  4.6245e-08  2.8817e-08  0:03:38 1340

  iter  continuity  x-velocity  y-velocity     time/iter
   661  3.6723e-04  4.6297e-08  2.8664e-08  0:02:54 1339
   662  3.6516e-04  4.6442e-08  2.8622e-08  0:02:19 1338
   663  3.6173e-04  4.6489e-08  2.8583e-08  0:01:51 1337
   664  3.6020e-04  4.6889e-08  2.8439e-08  0:05:56 1336
   665  3.6265e-04  4.7003e-08  2.8436e-08  0:04:45 1335
   666  3.5944e-04  4.6910e-08  2.8322e-08  0:03:48 1334
   667  3.7133e-04  4.6736e-08  2.8236e-08  0:03:02 1333
   668  3.6806e-04  4.6410e-08  2.8189e-08  0:02:25 1332
   669  3.6372e-04  4.6658e-08  2.8208e-08  0:01:56 1331
   670  3.6267e-04  4.7122e-08  2.8161e-08  0:01:33 1330
   671  3.6073e-04  4.7097e-08  2.8125e-08  0:05:40 1329

  iter  continuity  x-velocity  y-velocity     time/iter
   672  3.4991e-04  4.6992e-08  2.7991e-08  0:04:32 1328
   673  3.5277e-04  4.7361e-08  2.7811e-08  0:03:37 1327
   674  3.6296e-04  4.7102e-08  2.7744e-08  0:02:54 1326
   675  3.6199e-04  4.7072e-08  2.7821e-08  0:02:19 1325
   676  3.6752e-04  4.6692e-08  2.7747e-08  0:01:51 1324
   677  3.5494e-04  4.6580e-08  2.7805e-08  0:01:29 1323
   678  3.4859e-04  4.6726e-08  2.7752e-08  0:05:35 1322
   679  3.5177e-04  4.6486e-08  2.7612e-08  0:04:28 1321
   680  3.4325e-04  4.6340e-08  2.7513e-08  0:03:34 1320
   681  3.5516e-04  4.6121e-08  2.7327e-08  0:02:51 1319
   682  3.5861e-04  4.5776e-08  2.7363e-08  0:02:17 1318

  iter  continuity  x-velocity  y-velocity     time/iter
   683  3.5355e-04  4.5756e-08  2.7410e-08  0:01:49 1317
   684  3.5678e-04  4.6183e-08  2.7322e-08  0:01:28 1316
   685  3.5838e-04  4.6217e-08  2.7322e-08  0:05:33 1315
   686  3.5924e-04  4.5872e-08  2.7267e-08  0:04:26 1314
   687  3.5458e-04  4.6148e-08  2.7241e-08  0:03:33 1313
   688  3.6098e-04  4.6003e-08  2.7216e-08  0:02:50 1312
   689  3.5393e-04  4.6383e-08  2.7159e-08  0:06:38 1311
   690  3.5379e-04  4.6739e-08  2.7020e-08  0:05:18 1310
   691  3.4930e-04  4.6572e-08  2.6948e-08  0:04:14 1309
   692  3.4966e-04  4.6934e-08  2.6897e-08  0:03:23 1308
   693  3.4872e-04  4.7012e-08  2.6769e-08  0:02:43 1307

  iter  continuity  x-velocity  y-velocity     time/iter
   694  3.5083e-04  4.6796e-08  2.6704e-08  0:02:10 1306
   695  3.6152e-04  4.6719e-08  2.6728e-08  0:06:05 1305
   696  3.6367e-04  4.6483e-08  2.6730e-08  0:04:52 1304
   697  3.5340e-04  4.6452e-08  2.6749e-08  0:03:53 1303
   698  3.5047e-04  4.6319e-08  2.6692e-08  0:03:06 1302
   699  3.5509e-04  4.6091e-08  2.6580e-08  0:02:29 1301
   700  3.5235e-04  4.6314e-08  2.6479e-08  0:01:59 1300
   701  3.5337e-04  4.6317e-08  2.6426e-08  0:01:35 1299
   702  3.4869e-04  4.6166e-08  2.6399e-08  0:05:36 1298
   703  3.4417e-04  4.6101e-08  2.6345e-08  0:04:28 1297
   704  3.4951e-04  4.6223e-08  2.6202e-08  0:03:35 1296

  iter  continuity  x-velocity  y-velocity     time/iter
   705  3.4404e-04  4.6492e-08  2.6177e-08  0:02:51 1295
   706  3.4688e-04  4.6361e-08  2.6102e-08  0:02:17 1294
   707  3.5125e-04  4.5902e-08  2.6015e-08  0:01:50 1293
   708  3.6161e-04  4.5714e-08  2.5971e-08  0:01:28 1292
   709  3.5199e-04  4.5569e-08  2.5942e-08  0:05:28 1291
   710  3.4819e-04  4.5938e-08  2.5918e-08  0:04:22 1290
   711  3.4694e-04  4.6208e-08  2.5866e-08  0:03:30 1289
   712  3.4974e-04  4.5956e-08  2.5795e-08  0:02:48 1288
   713  3.5623e-04  4.5747e-08  2.5742e-08  0:02:14 1287
   714  3.5428e-04  4.5164e-08  2.5820e-08  0:01:47 1286
   715  3.5464e-04  4.5327e-08  2.5831e-08  0:05:43 1285

  iter  continuity  x-velocity  y-velocity     time/iter
   716  3.4570e-04  4.5574e-08  2.5728e-08  0:04:34 1284
   717  3.5270e-04  4.5664e-08  2.5548e-08  0:03:39 1283
   718  3.4338e-04  4.5880e-08  2.5558e-08  0:02:55 1282
   719  3.4950e-04  4.6078e-08  2.5512e-08  0:02:20 1281
   720  3.4549e-04  4.6095e-08  2.5495e-08  0:01:52 1280
   721  3.4722e-04  4.5726e-08  2.5410e-08  0:01:29 1279
   722  3.3851e-04  4.5566e-08  2.5228e-08  0:05:27 1278
   723  3.3240e-04  4.5608e-08  2.5112e-08  0:04:21 1277
   724  3.4925e-04  4.4926e-08  2.5021e-08  0:03:29 1276
   725  3.4394e-04  4.4881e-08  2.5063e-08  0:02:47 1275
   726  3.4686e-04  4.5072e-08  2.5093e-08  0:02:14 1274

  iter  continuity  x-velocity  y-velocity     time/iter
   727  3.4285e-04  4.5296e-08  2.5059e-08  0:01:47 1273
   728  3.4301e-04  4.5231e-08  2.5032e-08  0:01:25 1272
   729  3.3926e-04  4.5287e-08  2.4917e-08  0:05:22 1271
   730  3.3825e-04  4.5362e-08  2.4777e-08  0:04:18 1270
   731  3.4834e-04  4.5140e-08  2.4723e-08  0:03:26 1269
   732  3.4716e-04  4.4908e-08  2.4654e-08  0:02:45 1268
   733  3.4857e-04  4.5029e-08  2.4681e-08  0:06:25 1267
   734  3.5697e-04  4.5124e-08  2.4697e-08  0:05:08 1266
   735  3.5975e-04  4.5295e-08  2.4710e-08  0:04:06 1265
   736  3.4906e-04  4.5113e-08  2.4724e-08  0:03:17 1264
   737  3.4311e-04  4.5409e-08  2.4660e-08  0:02:37 1263

  iter  continuity  x-velocity  y-velocity     time/iter
   738  3.4007e-04  4.5550e-08  2.4594e-08  0:02:06 1262
   739  3.5520e-04  4.4679e-08  2.4409e-08  0:01:40 1261
   740  3.4126e-04  4.4591e-08  2.4375e-08  0:05:32 1260
   741  3.4270e-04  4.4846e-08  2.4338e-08  0:04:26 1259
   742  3.4198e-04  4.4531e-08  2.4255e-08  0:03:32 1258
   743  3.3453e-04  4.4330e-08  2.4253e-08  0:02:50 1257
   744  3.3720e-04  4.4516e-08  2.4220e-08  0:02:16 1256
   745  3.3977e-04  4.4132e-08  2.4185e-08  0:01:48 1255
   746  3.4448e-04  4.3947e-08  2.4145e-08  0:01:27 1254
   747  3.5027e-04  4.4082e-08  2.4036e-08  0:05:20 1253
   748  3.5095e-04  4.3643e-08  2.4159e-08  0:04:16 1252

  iter  continuity  x-velocity  y-velocity     time/iter
   749  3.3983e-04  4.3539e-08  2.4163e-08  0:03:24 1251
   750  3.4855e-04  4.3815e-08  2.4031e-08  0:02:43 1250
   751  3.3998e-04  4.3555e-08  2.3959e-08  0:02:11 1249
   752  3.3828e-04  4.3715e-08  2.3915e-08  0:01:44 1248
   753  3.4452e-04  4.3988e-08  2.3870e-08  0:05:33 1247
   754  3.4122e-04  4.4139e-08  2.3845e-08  0:04:26 1246
   755  3.4106e-04  4.4402e-08  2.3864e-08  0:03:33 1245
   756  3.4015e-04  4.4721e-08  2.3755e-08  0:02:50 1244
   757  3.3173e-04  4.4915e-08  2.3700e-08  0:02:16 1243
   758  3.3177e-04  4.5045e-08  2.3664e-08  0:01:49 1242
   759  3.3705e-04  4.5122e-08  2.3565e-08  0:01:27 1241

  iter  continuity  x-velocity  y-velocity     time/iter
   760  3.3688e-04  4.5258e-08  2.3484e-08  0:05:17 1240
   761  3.4361e-04  4.4977e-08  2.3426e-08  0:04:14 1239
   762  3.3842e-04  4.5114e-08  2.3475e-08  0:03:23 1238
   763  3.4125e-04  4.4931e-08  2.3470e-08  0:02:42 1237
   764  3.4030e-04  4.5195e-08  2.3491e-08  0:02:10 1236
   765  3.3834e-04  4.5057e-08  2.3498e-08  0:01:44 1235
   766  3.4272e-04  4.4678e-08  2.3392e-08  0:01:23 1234
   767  3.3569e-04  4.4937e-08  2.3315e-08  0:05:13 1233
   768  3.3015e-04  4.5030e-08  2.3269e-08  0:04:10 1232
   769  3.3522e-04  4.4863e-08  2.3094e-08  0:03:20 1231
   770  3.4194e-04  4.4657e-08  2.3095e-08  0:02:40 1230

  iter  continuity  x-velocity  y-velocity     time/iter
   771  3.3392e-04  4.4958e-08  2.3065e-08  0:02:08 1229
   772  3.3569e-04  4.4877e-08  2.3040e-08  0:01:42 1228
   773  3.4358e-04  4.4456e-08  2.2969e-08  0:01:22 1227
   774  3.5162e-04  4.4221e-08  2.2997e-08  0:05:10 1226
   775  3.4329e-04  4.4345e-08  2.3077e-08  0:04:08 1225
   776  3.3823e-04  4.4517e-08  2.3042e-08  0:03:18 1224
   777  3.2864e-04  4.4339e-08  2.2970e-08  0:02:39 1223
   778  3.3075e-04  4.4202e-08  2.2838e-08  0:02:07 1222
   779  3.2838e-04  4.3864e-08  2.2758e-08  0:01:41 1221
   780  3.4063e-04  4.3938e-08  2.2748e-08  0:05:25 1220
   781  3.4026e-04  4.3624e-08  2.2740e-08  0:04:20 1219

  iter  continuity  x-velocity  y-velocity     time/iter
   782  3.3196e-04  4.3752e-08  2.2759e-08  0:03:28 1218
   783  3.3217e-04  4.4120e-08  2.2645e-08  0:02:46 1217
   784  3.3455e-04  4.4053e-08  2.2581e-08  0:02:13 1216
   785  3.3907e-04  4.4296e-08  2.2511e-08  0:05:49 1215
   786  3.3361e-04  4.4222e-08  2.2438e-08  0:04:39 1214
   787  3.2764e-04  4.4241e-08  2.2433e-08  0:03:43 1213
   788  3.3003e-04  4.4320e-08  2.2327e-08  0:02:58 1212
   789  3.2923e-04  4.4452e-08  2.2228e-08  0:02:23 1211
   790  3.3197e-04  4.4238e-08  2.2212e-08  0:01:54 1210
   791  3.3998e-04  4.3881e-08  2.2193e-08  0:01:31 1209
   792  3.3732e-04  4.4343e-08  2.2166e-08  0:05:14 1208

  iter  continuity  x-velocity  y-velocity     time/iter
   793  3.3354e-04  4.3929e-08  2.2184e-08  0:04:11 1207
   794  3.3111e-04  4.3947e-08  2.2100e-08  0:03:21 1206
   795  3.2237e-04  4.3787e-08  2.2022e-08  0:02:41 1205
   796  3.3066e-04  4.3586e-08  2.1860e-08  0:02:08 1204
   797  3.3473e-04  4.3449e-08  2.1829e-08  0:01:43 1203
   798  3.3407e-04  4.3423e-08  2.1838e-08  0:05:22 1202
   799  3.2767e-04  4.3819e-08  2.1891e-08  0:04:18 1201
   800  3.3459e-04  4.3576e-08  2.1781e-08  0:03:26 1200
   801  3.3421e-04  4.3521e-08  2.1768e-08  0:02:45 1199
   802  3.2459e-04  4.3666e-08  2.1625e-08  0:02:12 1198
   803  3.3169e-04  4.3955e-08  2.1473e-08  0:01:45 1197

  iter  continuity  x-velocity  y-velocity     time/iter
   804  3.2276e-04  4.4068e-08  2.1539e-08  0:01:24 1196
   805  3.2246e-04  4.4005e-08  2.1411e-08  0:05:06 1195
   806  3.2737e-04  4.3624e-08  2.1353e-08  0:04:05 1194
   807  3.2330e-04  4.3427e-08  2.1293e-08  0:03:16 1193
   808  3.2499e-04  4.3344e-08  2.1296e-08  0:02:36 1192
   809  3.2287e-04  4.3334e-08  2.1225e-08  0:02:05 1191
   810  3.2019e-04  4.3236e-08  2.1177e-08  0:01:40 1190
   811  3.2199e-04  4.3173e-08  2.1100e-08  0:01:20 1189
   812  3.2322e-04  4.3297e-08  2.1099e-08  0:05:01 1188
   813  3.2387e-04  4.3221e-08  2.1081e-08  0:04:01 1187
   814  3.2275e-04  4.3362e-08  2.1043e-08  0:03:13 1186

  iter  continuity  x-velocity  y-velocity     time/iter
   815  3.2508e-04  4.3193e-08  2.1064e-08  0:02:34 1185
   816  3.2318e-04  4.3593e-08  2.1032e-08  0:02:03 1184
   817  3.2463e-04  4.3504e-08  2.0973e-08  0:01:38 1183
   818  3.2764e-04  4.2998e-08  2.0953e-08  0:05:15 1182
   819  3.2295e-04  4.3026e-08  2.0954e-08  0:04:12 1181
   820  3.3089e-04  4.2731e-08  2.0865e-08  0:03:21 1180
   821  3.2605e-04  4.3223e-08  2.0897e-08  0:02:41 1179
   822  3.1852e-04  4.2851e-08  2.0845e-08  0:02:09 1178
   823  3.2633e-04  4.3484e-08  2.0700e-08  0:01:43 1177
   824  3.2725e-04  4.3445e-08  2.0664e-08  0:01:22 1176
   825  3.2944e-04  4.3528e-08  2.0700e-08  0:05:01 1175

  iter  continuity  x-velocity  y-velocity     time/iter
   826  3.2712e-04  4.3282e-08  2.0749e-08  0:04:00 1174
   827  3.1711e-04  4.3404e-08  2.0776e-08  0:03:12 1173
   828  3.1693e-04  4.3480e-08  2.0619e-08  0:02:34 1172
   829  3.1968e-04  4.3616e-08  2.0481e-08  0:02:03 1171
   830  3.1773e-04  4.3897e-08  2.0407e-08  0:05:32 1170
   831  3.2357e-04  4.3595e-08  2.0341e-08  0:04:25 1169
   832  3.2371e-04  4.3279e-08  2.0455e-08  0:03:32 1168
   833  3.2390e-04  4.3436e-08  2.0446e-08  0:02:50 1167
   834  3.3001e-04  4.3803e-08  2.0425e-08  0:02:16 1166
   835  3.2833e-04  4.3733e-08  2.0488e-08  0:01:48 1165
   836  3.2287e-04  4.3906e-08  2.0448e-08  0:01:27 1164

  iter  continuity  x-velocity  y-velocity     time/iter
   837  3.2394e-04  4.3976e-08  2.0386e-08  0:05:02 1163
   838  3.2809e-04  4.3806e-08  2.0373e-08  0:04:01 1162
   839  3.2991e-04  4.3572e-08  2.0376e-08  0:03:13 1161
   840  3.2805e-04  4.3580e-08  2.0377e-08  0:02:34 1160
   841  3.2834e-04  4.3620e-08  2.0381e-08  0:02:03 1159
   842  3.1867e-04  4.3237e-08  2.0330e-08  0:01:38 1158
   843  3.2257e-04  4.3066e-08  2.0178e-08  0:05:10 1157
   844  3.2520e-04  4.2865e-08  2.0124e-08  0:04:08 1156
   845  3.1560e-04  4.3066e-08  2.0071e-08  0:03:18 1155
   846  3.1574e-04  4.2928e-08  2.0022e-08  0:02:38 1154
   847  3.1898e-04  4.2746e-08  1.9948e-08  0:02:07 1153

  iter  continuity  x-velocity  y-velocity     time/iter
   848  3.1779e-04  4.2659e-08  1.9920e-08  0:01:41 1152
   849  3.2047e-04  4.2480e-08  1.9765e-08  0:01:21 1151
   850  3.2370e-04  4.2073e-08  1.9720e-08  0:04:55 1150
   851  3.1421e-04  4.2080e-08  1.9725e-08  0:03:56 1149
   852  3.1759e-04  4.2669e-08  1.9669e-08  0:03:08 1148
   853  3.2052e-04  4.3022e-08  1.9613e-08  0:02:30 1147
   854  3.1088e-04  4.3072e-08  1.9649e-08  0:02:00 1146
   855  3.1027e-04  4.2987e-08  1.9492e-08  0:01:36 1145
   856  3.1642e-04  4.2617e-08  1.9333e-08  0:05:06 1144
   857  3.2124e-04  4.1935e-08  1.9366e-08  0:04:04 1143
   858  3.1802e-04  4.1612e-08  1.9396e-08  0:03:15 1142

  iter  continuity  x-velocity  y-velocity     time/iter
   859  3.1843e-04  4.1907e-08  1.9438e-08  0:02:36 1141
   860  3.2171e-04  4.2240e-08  1.9435e-08  0:02:05 1140
   861  3.1892e-04  4.2513e-08  1.9413e-08  0:01:40 1139
   862  3.2232e-04  4.2615e-08  1.9410e-08  0:01:20 1138
   863  3.2388e-04  4.2104e-08  1.9403e-08  0:04:51 1137
   864  3.2056e-04  4.2165e-08  1.9326e-08  0:03:53 1136
   865  3.2057e-04  4.2162e-08  1.9261e-08  0:03:06 1135
   866  3.2307e-04  4.2289e-08  1.9181e-08  0:02:29 1134
   867  3.1307e-04  4.2471e-08  1.9151e-08  0:01:59 1133
   868  3.1521e-04  4.2653e-08  1.9087e-08  0:01:35 1132
   869  3.1017e-04  4.2711e-08  1.9060e-08  0:01:16 1131

  iter  continuity  x-velocity  y-velocity     time/iter
   870  3.0796e-04  4.2367e-08  1.8955e-08  0:04:47 1130
   871  3.1008e-04  4.2407e-08  1.8877e-08  0:03:49 1129
   872  3.2093e-04  4.2186e-08  1.8874e-08  0:03:03 1128
   873  3.1834e-04  4.2248e-08  1.8930e-08  0:02:26 1127
   874  3.1945e-04  4.2417e-08  1.9057e-08  0:01:57 1126
   875  3.2050e-04  4.2007e-08  1.8982e-08  0:05:19 1125
   876  3.1702e-04  4.2087e-08  1.8958e-08  0:04:15 1124
   877  3.1100e-04  4.2281e-08  1.8961e-08  0:03:23 1123
   878  3.1027e-04  4.2162e-08  1.8784e-08  0:02:43 1122
   879  3.2137e-04  4.1597e-08  1.8709e-08  0:02:10 1121
   880  3.1403e-04  4.1641e-08  1.8772e-08  0:01:44 1120

  iter  continuity  x-velocity  y-velocity     time/iter
   881  3.1838e-04  4.1600e-08  1.8707e-08  0:01:23 1119
   882  3.1262e-04  4.1577e-08  1.8734e-08  0:04:50 1118
   883  3.1646e-04  4.1566e-08  1.8603e-08  0:03:52 1117
   884  3.1319e-04  4.1345e-08  1.8641e-08  0:03:05 1116
   885  3.1076e-04  4.1560e-08  1.8574e-08  0:02:28 1115
   886  3.0203e-04  4.1463e-08  1.8381e-08  0:01:58 1114
   887  3.0165e-04  4.1573e-08  1.8269e-08  0:01:35 1113
   888  3.0931e-04  4.1202e-08  1.8235e-08  0:04:58 1112
   889  3.0841e-04  4.1377e-08  1.8253e-08  0:03:58 1111
   890  3.1920e-04  4.1215e-08  1.8207e-08  0:03:10 1110
   891  3.1641e-04  4.1979e-08  1.8308e-08  0:02:32 1109

  iter  continuity  x-velocity  y-velocity     time/iter
   892  3.2943e-04  4.1620e-08  1.8330e-08  0:02:02 1108
   893  3.2035e-04  4.1512e-08  1.8416e-08  0:01:37 1107
   894  3.1928e-04  4.1456e-08  1.8393e-08  0:01:18 1106
   895  3.0809e-04  4.1461e-08  1.8326e-08  0:04:43 1105
   896  3.1477e-04  4.1787e-08  1.8249e-08  0:03:46 1104
   897  3.1470e-04  4.2046e-08  1.8132e-08  0:03:01 1103
   898  3.2133e-04  4.1483e-08  1.8138e-08  0:02:25 1102
   899  3.1778e-04  4.1218e-08  1.8167e-08  0:01:56 1101
   900  3.1394e-04  4.1439e-08  1.8172e-08  0:01:32 1100
   901  3.1435e-04  4.1208e-08  1.8139e-08  0:01:14 1099
   902  3.1796e-04  4.1287e-08  1.8131e-08  0:04:39 1098

  iter  continuity  x-velocity  y-velocity     time/iter
   903  3.1489e-04  4.1587e-08  1.8140e-08  0:03:43 1097
   904  3.1432e-04  4.1732e-08  1.8083e-08  0:02:58 1096
   905  3.0854e-04  4.1650e-08  1.8036e-08  0:02:22 1095
   906  3.0468e-04  4.1699e-08  1.7985e-08  0:01:54 1094
   907  3.1013e-04  4.1641e-08  1.7933e-08  0:01:31 1093
   908  3.1420e-04  4.1751e-08  1.7848e-08  0:01:13 1092
   909  3.2345e-04  4.1666e-08  1.7830e-08  0:04:36 1091
   910  3.1735e-04  4.1556e-08  1.7980e-08  0:03:41 1090
   911  3.1750e-04  4.1505e-08  1.7948e-08  0:02:56 1089
   912  3.1244e-04  4.1618e-08  1.7934e-08  0:02:21 1088
   913  3.0982e-04  4.1880e-08  1.7819e-08  0:01:53 1087

  iter  continuity  x-velocity  y-velocity     time/iter
   914  3.1292e-04  4.1962e-08  1.7770e-08  0:01:30 1086
   915  3.0697e-04  4.1970e-08  1.7648e-08  0:04:49 1085
   916  3.0657e-04  4.2031e-08  1.7623e-08  0:03:51 1084
   917  3.0140e-04  4.2021e-08  1.7553e-08  0:03:05 1083
   918  3.1050e-04  4.1825e-08  1.7534e-08  0:02:28 1082
   919  3.1736e-04  4.2095e-08  1.7550e-08  0:01:58 1081
   920  3.1403e-04  4.1901e-08  1.7578e-08  0:01:34 1080
   921  3.1072e-04  4.1600e-08  1.7604e-08  0:01:15 1079
   922  3.1238e-04  4.1645e-08  1.7638e-08  0:04:36 1078
   923  3.1019e-04  4.2045e-08  1.7560e-08  0:03:40 1077
   924  3.0967e-04  4.2299e-08  1.7511e-08  0:02:56 1076

  iter  continuity  x-velocity  y-velocity     time/iter
   925  3.0990e-04  4.2187e-08  1.7427e-08  0:02:21 1075
   926  3.1108e-04  4.2078e-08  1.7462e-08  0:05:27 1074
   927  3.0119e-04  4.1770e-08  1.7402e-08  0:04:22 1073
   928  2.9975e-04  4.1871e-08  1.7342e-08  0:03:29 1072
   929  3.0790e-04  4.1887e-08  1.7261e-08  0:02:47 1071
   930  3.0815e-04  4.1971e-08  1.7232e-08  0:02:14 1070
   931  3.1288e-04  4.2039e-08  1.7323e-08  0:01:47 1069
   932  3.0287e-04  4.2309e-08  1.7319e-08  0:01:25 1068
   933  3.0786e-04  4.2305e-08  1.7286e-08  0:04:42 1067
   934  3.0162e-04  4.1958e-08  1.7306e-08  0:03:45 1066
   935  3.0005e-04  4.2141e-08  1.7183e-08  0:03:00 1065

  iter  continuity  x-velocity  y-velocity     time/iter
   936  3.0002e-04  4.2488e-08  1.7079e-08  0:02:24 1064
   937  3.0749e-04  4.2403e-08  1.7118e-08  0:01:55 1063
   938  3.1049e-04  4.2312e-08  1.7047e-08  0:01:32 1062
   939  3.0956e-04  4.2144e-08  1.7057e-08  0:04:46 1061
   940  3.0490e-04  4.2138e-08  1.7064e-08  0:03:48 1060
   941  3.0134e-04  4.2120e-08  1.7067e-08  0:03:02 1059
   942  3.0884e-04  4.1872e-08  1.7065e-08  0:02:26 1058
   943  3.0673e-04  4.2043e-08  1.7079e-08  0:01:57 1057
   944  3.0578e-04  4.2023e-08  1.7044e-08  0:01:33 1056
   945  3.0533e-04  4.2141e-08  1.7098e-08  0:01:14 1055
   946  3.0460e-04  4.2202e-08  1.6965e-08  0:04:30 1054

  iter  continuity  x-velocity  y-velocity     time/iter
   947  3.1099e-04  4.1899e-08  1.7047e-08  0:03:36 1053
   948  3.0985e-04  4.1998e-08  1.7036e-08  0:02:53 1052
   949  3.0709e-04  4.1659e-08  1.6989e-08  0:02:18 1051
   950  3.0611e-04  4.1492e-08  1.6971e-08  0:01:50 1050
   951  3.1594e-04  4.1383e-08  1.6891e-08  0:01:28 1049
   952  3.0303e-04  4.1571e-08  1.6861e-08  0:01:10 1048
   953  3.1291e-04  4.1292e-08  1.6781e-08  0:04:26 1047
   954  3.0602e-04  4.1293e-08  1.6838e-08  0:03:32 1046
   955  3.1613e-04  4.0929e-08  1.6765e-08  0:02:50 1045
   956  3.0884e-04  4.1112e-08  1.6839e-08  0:02:16 1044
   957  3.0646e-04  4.0990e-08  1.6857e-08  0:01:48 1043

  iter  continuity  x-velocity  y-velocity     time/iter
   958  3.1507e-04  4.1120e-08  1.6788e-08  0:01:27 1042
   959  3.0235e-04  4.1176e-08  1.6842e-08  0:04:37 1041
   960  3.0555e-04  4.1065e-08  1.6780e-08  0:03:42 1040
   961  3.0069e-04  4.1436e-08  1.6706e-08  0:02:57 1039
   962  3.1170e-04  4.1445e-08  1.6668e-08  0:02:22 1038
   963  3.0971e-04  4.1271e-08  1.6747e-08  0:01:53 1037
   964  3.1014e-04  4.1135e-08  1.6705e-08  0:01:30 1036
   965  3.0705e-04  4.1722e-08  1.6722e-08  0:04:39 1035
   966  3.1278e-04  4.1284e-08  1.6649e-08  0:03:43 1034
   967  3.0281e-04  4.1255e-08  1.6634e-08  0:02:58 1033
   968  3.0118e-04  4.1208e-08  1.6553e-08  0:02:23 1032

  iter  continuity  x-velocity  y-velocity     time/iter
   969  2.9850e-04  4.1527e-08  1.6569e-08  0:01:54 1031
   970  3.0078e-04  4.1604e-08  1.6427e-08  0:04:57 1030
   971  3.0793e-04  4.1463e-08  1.6425e-08  0:03:57 1029
   972  3.1098e-04  4.1434e-08  1.6385e-08  0:03:10 1028
   973  3.0804e-04  4.1033e-08  1.6465e-08  0:02:32 1027
   974  3.0262e-04  4.0747e-08  1.6428e-08  0:02:01 1026
   975  3.1560e-04  4.0734e-08  1.6422e-08  0:01:37 1025
   976  3.0742e-04  4.0313e-08  1.6403e-08  0:01:17 1024
   977  3.0875e-04  4.0895e-08  1.6431e-08  0:04:26 1023
   978  3.0386e-04  4.0690e-08  1.6338e-08  0:03:33 1022
   979  3.0291e-04  4.0913e-08  1.6290e-08  0:02:50 1021

  iter  continuity  x-velocity  y-velocity     time/iter
   980  3.0567e-04  4.0872e-08  1.6202e-08  0:02:16 1020
   981  2.9629e-04  4.0730e-08  1.6241e-08  0:01:49 1019
   982  3.0073e-04  4.0636e-08  1.6170e-08  0:01:27 1018
   983  3.0184e-04  4.0669e-08  1.6147e-08  0:04:33 1017
   984  2.9892e-04  4.0904e-08  1.6112e-08  0:03:38 1016
   985  3.0205e-04  4.1265e-08  1.6071e-08  0:02:54 1015
   986  3.0463e-04  4.1158e-08  1.6027e-08  0:02:19 1014
   987  3.0460e-04  4.0824e-08  1.6059e-08  0:01:51 1013
   988  3.0794e-04  4.0865e-08  1.6037e-08  0:01:29 1012
   989  2.9982e-04  4.1006e-08  1.5977e-08  0:01:11 1011
   990  3.0129e-04  4.0876e-08  1.5926e-08  0:04:19 1010

  iter  continuity  x-velocity  y-velocity     time/iter
   991  3.0481e-04  4.1122e-08  1.5958e-08  0:03:27 1009
   992  3.0490e-04  4.1306e-08  1.5998e-08  0:02:45 1008
[...]
  1745  2.5088e-04  3.5385e-08  6.4332e-09  0:00:29  255
  1746  2.5436e-04  3.5287e-08  6.4615e-09  0:01:14  254
  1747  2.5186e-04  3.4977e-08  6.5027e-09  0:00:59  253
  1748  2.5424e-04  3.5212e-08  6.4749e-09  0:00:47  252
  1749  2.5102e-04  3.5486e-08  6.4149e-09  0:00:37  251

  iter  continuity  x-velocity  y-velocity     time/iter
  1750  2.4874e-04  3.5379e-08  6.4322e-09  0:00:30  250
  1751  2.4521e-04  3.5784e-08  6.4183e-09  0:01:14  249
  1752  2.5026e-04  3.6048e-08  6.3568e-09  0:00:59  248
  1753  2.4306e-04  3.5800e-08  6.3756e-09  0:00:47  247
  1754  2.4632e-04  3.5881e-08  6.2613e-09  0:00:37  246
  1755  2.4719e-04  3.5913e-08  6.3050e-09  0:00:30  245
  1756  2.4358e-04  3.6081e-08  6.2759e-09  0:01:12  244
  1757  2.4260e-04  3.5711e-08  6.2558e-09  0:00:58  243
  1758  2.5214e-04  3.6009e-08  6.1972e-09  0:00:46  242
  1759  2.5344e-04  3.5306e-08  6.2872e-09  0:00:37  241
  1760  2.4752e-04  3.5288e-08  6.3701e-09  0:01:17  240

  iter  continuity  x-velocity  y-velocity     time/iter
  1761  2.4648e-04  3.5358e-08  6.3344e-09  0:01:01  239
  1762  2.5202e-04  3.5218e-08  6.2379e-09  0:00:49  238
  1763  2.5017e-04  3.5516e-08  6.2130e-09  0:00:39  237
  1764  2.5009e-04  3.5627e-08  6.2285e-09  0:00:31  236
  1765  2.4278e-04  3.5562e-08  6.2298e-09  0:00:25  235
  1766  2.4371e-04  3.5556e-08  6.2274e-09  0:01:07  234
  1767  2.4359e-04  3.5775e-08  6.1567e-09  0:00:53  233
  1768  2.4760e-04  3.5573e-08  6.1999e-09  0:00:42  232
  1769  2.5045e-04  3.5714e-08  6.1624e-09  0:00:34  231
  1770  2.4487e-04  3.6119e-08  6.2401e-09  0:00:27  230
  1771  2.4592e-04  3.6059e-08  6.1689e-09  0:01:07  229

  iter  continuity  x-velocity  y-velocity     time/iter
  1772  2.4445e-04  3.6057e-08  6.1684e-09  0:00:53  228
  1773  2.4686e-04  3.6059e-08  6.1341e-09  0:00:43  227
  1774  2.5035e-04  3.6228e-08  6.1907e-09  0:00:34  226
  1775  2.5015e-04  3.6293e-08  6.2466e-09  0:00:27  225
  1776  2.5653e-04  3.5987e-08  6.1961e-09  0:00:22  224
  1777  2.5339e-04  3.6037e-08  6.2841e-09  0:01:02  223
  1778  2.5149e-04  3.5587e-08  6.2131e-09  0:00:49  222
  1779  2.5134e-04  3.5313e-08  6.2201e-09  0:00:39  221
  1780  2.4514e-04  3.5439e-08  6.2048e-09  0:00:31  220
  1781  2.4391e-04  3.5547e-08  6.2272e-09  0:00:25  219
  1782  2.4892e-04  3.5449e-08  6.2182e-09  0:01:03  218

  iter  continuity  x-velocity  y-velocity     time/iter
  1783  2.5329e-04  3.5169e-08  6.1883e-09  0:00:50  217
  1784  2.5017e-04  3.5137e-08  6.2208e-09  0:00:40  216
  1785  2.5007e-04  3.5246e-08  6.2369e-09  0:00:32  215
  1786  2.4679e-04  3.5316e-08  6.2124e-09  0:00:25  214
  1787  2.5382e-04  3.5024e-08  6.1995e-09  0:00:20  213
  1788  2.5341e-04  3.5274e-08  6.2181e-09  0:00:59  212
  1789  2.5051e-04  3.5585e-08  6.2294e-09  0:00:47  211
  1790  2.5027e-04  3.5697e-08  6.1582e-09  0:00:37  210
  1791  2.5086e-04  3.5951e-08  6.0839e-09  0:00:30  209
  1792  2.4596e-04  3.5549e-08  6.1375e-09  0:00:24  208
  1793  2.4551e-04  3.5604e-08  6.0934e-09  0:01:00  207

  iter  continuity  x-velocity  y-velocity     time/iter
  1794  2.4293e-04  3.5505e-08  6.0368e-09  0:00:48  206
  1795  2.4507e-04  3.5417e-08  6.0470e-09  0:00:38  205
  1796  2.4265e-04  3.5867e-08  6.0481e-09  0:00:30  204
  1797  2.4375e-04  3.5476e-08  6.0574e-09  0:00:24  203
  1798  2.5028e-04  3.5109e-08  6.0357e-09  0:00:19  202
  1799  2.4513e-04  3.5361e-08  6.0798e-09  0:00:56  201
  1800  2.4219e-04  3.5398e-08  6.0360e-09  0:00:44  200
  1801  2.5014e-04  3.5365e-08  6.0318e-09  0:00:35  199
  1802  2.4763e-04  3.5812e-08  6.0709e-09  0:00:28  198
  1803  2.4862e-04  3.5842e-08  6.0863e-09  0:00:22  197
  1804  2.4921e-04  3.6005e-08  6.0913e-09  0:00:57  196

  iter  continuity  x-velocity  y-velocity     time/iter
  1805  2.5255e-04  3.6014e-08  6.0841e-09  0:00:45  195
  1806  2.4986e-04  3.6030e-08  6.0623e-09  0:00:36  194
  1807  2.4377e-04  3.5987e-08  6.0370e-09  0:00:29  193
  1808  2.5155e-04  3.5591e-08  6.0706e-09  0:01:01  192
  1809  2.5394e-04  3.5626e-08  6.0626e-09  0:00:49  191
  1810  2.5806e-04  3.5377e-08  6.1325e-09  0:00:39  190
  1811  2.4820e-04  3.5773e-08  6.1249e-09  0:00:31  189
  1812  2.5570e-04  3.5883e-08  6.0645e-09  0:00:25  188
  1813  2.4598e-04  3.6132e-08  6.0743e-09  0:00:57  187
  1814  2.4184e-04  3.6097e-08  6.0346e-09  0:00:45  186
  1815  2.4864e-04  3.6323e-08  5.9665e-09  0:00:36  185

  iter  continuity  x-velocity  y-velocity     time/iter
  1816  2.5122e-04  3.6087e-08  6.0667e-09  0:00:29  184
  1817  2.5634e-04  3.5933e-08  6.1189e-09  0:00:23  183
  1818  2.5690e-04  3.5612e-08  6.1182e-09  0:00:18  182
  1819  2.4847e-04  3.5569e-08  6.0917e-09  0:00:51  181
  1820  2.4881e-04  3.5348e-08  6.0701e-09  0:00:40  180
  1821  2.4684e-04  3.5922e-08  5.9891e-09  0:00:32  179
  1822  2.4516e-04  3.6105e-08  5.9726e-09  0:00:26  178
  1823  2.5008e-04  3.5729e-08  5.9663e-09  0:00:20  177
  1824  2.5154e-04  3.5384e-08  6.0204e-09  0:00:51  176
  1825  2.5606e-04  3.5124e-08  6.0372e-09  0:00:41  175
  1826  2.6305e-04  3.4872e-08  6.0337e-09  0:00:32  174

  iter  continuity  x-velocity  y-velocity     time/iter
  1827  2.6143e-04  3.5080e-08  6.1515e-09  0:00:26  173
  1828  2.4582e-04  3.5406e-08  6.1595e-09  0:00:21  172
  1829  2.4393e-04  3.5852e-08  6.0383e-09  0:00:16  171
  1830  2.4605e-04  3.6001e-08  5.9835e-09  0:00:47  170
  1831  2.4654e-04  3.6020e-08  5.9363e-09  0:00:37  169
  1832  2.5095e-04  3.5751e-08  5.9302e-09  0:00:30  168
  1833  2.5242e-04  3.5529e-08  5.9250e-09  0:00:24  167
  1834  2.4590e-04  3.5384e-08  5.9758e-09  0:00:19  166
  1835  2.4389e-04  3.5411e-08  5.9914e-09  0:00:48  165
  1836  2.4809e-04  3.5444e-08  5.9099e-09  0:00:38  164
  1837  2.4429e-04  3.5430e-08  5.9242e-09  0:00:30  163

  iter  continuity  x-velocity  y-velocity     time/iter
  1838  2.5392e-04  3.5321e-08  5.9699e-09  0:00:24  162
  1839  2.5083e-04  3.5288e-08  5.9651e-09  0:00:19  161
  1840  2.5097e-04  3.5242e-08  5.9891e-09  0:00:47  160
  1841  2.6172e-04  3.4873e-08  5.9802e-09  0:00:38  159
  1842  2.5607e-04  3.4905e-08  6.0300e-09  0:00:30  158
  1843  2.4705e-04  3.5202e-08  6.0166e-09  0:00:24  157
  1844  2.4732e-04  3.5397e-08  5.9792e-09  0:00:19  156
  1845  2.4449e-04  3.5839e-08  5.9505e-09  0:00:15  155
  1846  2.4977e-04  3.5932e-08  5.8924e-09  0:00:43  154
  1847  2.4867e-04  3.5765e-08  5.9266e-09  0:00:34  153
  1848  2.4588e-04  3.5768e-08  5.9241e-09  0:00:27  152

  iter  continuity  x-velocity  y-velocity     time/iter
  1849  2.4488e-04  3.5900e-08  5.9215e-09  0:00:21  151
  1850  2.4778e-04  3.5877e-08  5.9213e-09  0:00:47  150
  1851  2.4718e-04  3.5907e-08  5.9357e-09  0:00:37  149
  1852  2.4407e-04  3.5935e-08  5.8724e-09  0:00:30  148
  1853  2.4585e-04  3.5726e-08  5.8773e-09  0:00:24  147
  1854  2.4739e-04  3.5629e-08  5.9122e-09  0:00:19  146
  1855  2.4372e-04  3.5681e-08  5.8920e-09  0:00:44  145
  1856  2.5003e-04  3.5533e-08  5.8596e-09  0:00:35  144
  1857  2.4741e-04  3.5504e-08  5.8851e-09  0:00:28  143
  1858  2.4499e-04  3.5576e-08  5.8682e-09  0:00:22  142
  1859  2.4689e-04  3.5746e-08  5.8149e-09  0:00:17  141

  iter  continuity  x-velocity  y-velocity     time/iter
  1860  2.4570e-04  3.5570e-08  5.8829e-09  0:00:42  140
  1861  2.4529e-04  3.5624e-08  5.8615e-09  0:00:33  139
  1862  2.4179e-04  3.5409e-08  5.7740e-09  0:00:26  138
  1863  2.4764e-04  3.5317e-08  5.8083e-09  0:00:21  137
  1864  2.4286e-04  3.5673e-08  5.8013e-09  0:00:17  136
  1865  2.4432e-04  3.5850e-08  5.8493e-09  0:00:13  135
  1866  2.4345e-04  3.5666e-08  5.8180e-09  0:00:37  134
  1867  2.4486e-04  3.5646e-08  5.8193e-09  0:00:30  133
  1868  2.4805e-04  3.5660e-08  5.7853e-09  0:00:24  132
  1869  2.4724e-04  3.5341e-08  5.8352e-09  0:00:19  131
  1870  2.4318e-04  3.5598e-08  5.8257e-09  0:00:15  130

  iter  continuity  x-velocity  y-velocity     time/iter
  1871  2.4590e-04  3.5804e-08  5.8054e-09  0:00:38  129
  1872  2.4853e-04  3.5556e-08  5.7903e-09  0:00:30  128
  1873  2.5579e-04  3.4990e-08  5.8688e-09  0:00:24  127
  1874  2.5100e-04  3.4767e-08  5.8833e-09  0:00:19  126
  1875  2.5758e-04  3.5185e-08  5.9121e-09  0:00:15  125
  1876  2.5566e-04  3.4909e-08  5.9463e-09  0:00:37  124
  1877  2.5286e-04  3.5188e-08  5.9674e-09  0:00:29  123
  1878  2.4958e-04  3.5254e-08  5.8989e-09  0:00:23  122
  1879  2.5142e-04  3.5541e-08  5.8565e-09  0:00:18  121
  1880  2.4799e-04  3.5256e-08  5.9191e-09  0:00:15  120
  1881  2.5233e-04  3.5339e-08  5.8291e-09  0:00:35  119

  iter  continuity  x-velocity  y-velocity     time/iter
  1882  2.4589e-04  3.5472e-08  5.7899e-09  0:00:28  118
  1883  2.4195e-04  3.5286e-08  5.7429e-09  0:00:22  117
  1884  2.4706e-04  3.5147e-08  5.6687e-09  0:00:18  116
  1885  2.5366e-04  3.5148e-08  5.7173e-09  0:00:14  115
  1886  2.4947e-04  3.5014e-08  5.7653e-09  0:00:11  114
  1887  2.4701e-04  3.5177e-08  5.7553e-09  0:00:31  113
  1888  2.4769e-04  3.5047e-08  5.7492e-09  0:00:25  112
  1889  2.4262e-04  3.5396e-08  5.7354e-09  0:00:20  111
  1890  2.4657e-04  3.5517e-08  5.6986e-09  0:00:16  110
  1891  2.4562e-04  3.5774e-08  5.7049e-09  0:00:12  109
  1892  2.5105e-04  3.5372e-08  5.6341e-09  0:00:31  108

  iter  continuity  x-velocity  y-velocity     time/iter
  1893  2.4040e-04  3.5545e-08  5.6961e-09  0:00:25  107
  1894  2.3941e-04  3.5549e-08  5.7026e-09  0:00:20  106
  1895  2.5135e-04  3.5176e-08  5.6552e-09  0:00:16  105
  1896  2.4768e-04  3.5272e-08  5.7325e-09  0:00:33  104
  1897  2.5192e-04  3.5080e-08  5.8301e-09  0:00:26  103
  1898  2.4518e-04  3.5352e-08  5.8151e-09  0:00:21  102
  1899  2.3879e-04  3.5773e-08  5.7968e-09  0:00:17  101
  1900  2.4600e-04  3.5871e-08  5.6918e-09  0:00:13  100
  1901  2.4554e-04  3.5810e-08  5.7132e-09  0:00:30   99
  1902  2.4144e-04  3.5727e-08  5.6854e-09  0:00:24   98
  1903  2.4004e-04  3.5607e-08  5.6884e-09  0:00:19   97

  iter  continuity  x-velocity  y-velocity     time/iter
  1904  2.4208e-04  3.5737e-08  5.6773e-09  0:00:15   96
  1905  2.4242e-04  3.5598e-08  5.6853e-09  0:00:12   95
  1906  2.5044e-04  3.5408e-08  5.6068e-09  0:00:09   94
  1907  2.5155e-04  3.5209e-08  5.7445e-09  0:00:26   93
  1908  2.4408e-04  3.5476e-08  5.7192e-09  0:00:21   92
  1909  2.5147e-04  3.5512e-08  5.7226e-09  0:00:16   91
  1910  2.4805e-04  3.6005e-08  5.7729e-09  0:00:13   90
  1911  2.4683e-04  3.5812e-08  5.7802e-09  0:00:10   89
  1912  2.4255e-04  3.5768e-08  5.6665e-09  0:00:26   88
  1913  2.4777e-04  3.5569e-08  5.6447e-09  0:00:20   87
  1914  2.4236e-04  3.5779e-08  5.6251e-09  0:00:16   86

  iter  continuity  x-velocity  y-velocity     time/iter
  1915  2.4022e-04  3.5866e-08  5.5810e-09  0:00:13   85
  1916  2.4296e-04  3.5742e-08  5.6164e-09  0:00:10   84
  1917  2.4543e-04  3.5808e-08  5.6305e-09  0:00:25   83
  1918  2.4543e-04  3.5949e-08  5.6041e-09  0:00:19   82
  1919  2.5233e-04  3.5795e-08  5.6255e-09  0:00:15   81
  1920  2.4024e-04  3.5931e-08  5.6337e-09  0:00:12   80
  1921  2.4103e-04  3.5982e-08  5.6399e-09  0:00:10   79
  1922  2.4619e-04  3.5907e-08  5.6692e-09  0:00:08   78
  1923  2.4990e-04  3.5633e-08  5.6436e-09  0:00:21   77
  1924  2.3991e-04  3.5652e-08  5.6136e-09  0:00:17   76
  1925  2.4390e-04  3.5663e-08  5.5832e-09  0:00:13   75

  iter  continuity  x-velocity  y-velocity     time/iter
  1926  2.4203e-04  3.5773e-08  5.6327e-09  0:00:11   74
  1927  2.4001e-04  3.5671e-08  5.5695e-09  0:00:08   73
  1928  2.4588e-04  3.5081e-08  5.5540e-09  0:00:21   72
  1929  2.3960e-04  3.5145e-08  5.5550e-09  0:00:17   71
  1930  2.3947e-04  3.5483e-08  5.5553e-09  0:00:13   70
  1931  2.3974e-04  3.5400e-08  5.5033e-09  0:00:10   69
  1932  2.4176e-04  3.5223e-08  5.5204e-09  0:00:08   68
  1933  2.4389e-04  3.5493e-08  5.4999e-09  0:00:20   67
  1934  2.4679e-04  3.5212e-08  5.5184e-09  0:00:16   66
  1935  2.3960e-04  3.5680e-08  5.5740e-09  0:00:12   65
  1936  2.4553e-04  3.5521e-08  5.5287e-09  0:00:10   64

  iter  continuity  x-velocity  y-velocity     time/iter
  1937  2.3886e-04  3.5832e-08  5.5813e-09  0:00:08   63
  1938  2.4590e-04  3.5577e-08  5.5243e-09  0:00:06   62
  1939  2.4511e-04  3.5473e-08  5.5314e-09  0:00:17   61
  1940  2.4443e-04  3.5580e-08  5.5357e-09  0:00:13   60
  1941  2.3649e-04  3.5517e-08  5.6022e-09  0:00:10   59
  1942  2.5479e-04  3.5291e-08  5.4921e-09  0:00:08   58
  1943  2.4331e-04  3.5528e-08  5.6023e-09  0:00:18   57
  1944  2.4461e-04  3.5374e-08  5.5699e-09  0:00:14   56
  1945  2.4232e-04  3.5727e-08  5.6107e-09  0:00:11   55
  1946  2.4203e-04  3.5841e-08  5.5743e-09  0:00:09   54
  1947  2.4353e-04  3.5792e-08  5.5459e-09  0:00:07   53

  iter  continuity  x-velocity  y-velocity     time/iter
  1948  2.4791e-04  3.5699e-08  5.5666e-09  0:00:16   52
  1949  2.4741e-04  3.5595e-08  5.5067e-09  0:00:12   51
  1950  2.4283e-04  3.5654e-08  5.5540e-09  0:00:10   50
  1951  2.5198e-04  3.5086e-08  5.5519e-09  0:00:08   49
  1952  2.4919e-04  3.4965e-08  5.6214e-09  0:00:06   48
  1953  2.4524e-04  3.5176e-08  5.6218e-09  0:00:05   47
  1954  2.4659e-04  3.5335e-08  5.6087e-09  0:00:13   46
  1955  2.4259e-04  3.5480e-08  5.4967e-09  0:00:10   45
  1956  2.4777e-04  3.5454e-08  5.4854e-09  0:00:08   44
  1957  2.4977e-04  3.5430e-08  5.5584e-09  0:00:06   43
  1958  2.5958e-04  3.5376e-08  5.5714e-09  0:00:05   42

  iter  continuity  x-velocity  y-velocity     time/iter
  1959  2.4928e-04  3.5119e-08  5.6315e-09  0:00:12   41
  1960  2.5128e-04  3.4577e-08  5.6480e-09  0:00:09   40
  1961  2.4734e-04  3.5055e-08  5.6120e-09  0:00:07   39
  1962  2.4776e-04  3.5296e-08  5.6023e-09  0:00:06   38
  1963  2.4674e-04  3.5289e-08  5.5795e-09  0:00:04   37
  1964  2.4491e-04  3.5218e-08  5.5007e-09  0:00:03   36
  1965  2.5390e-04  3.5469e-08  5.4826e-09  0:00:10   35
  1966  2.5250e-04  3.5371e-08  5.5438e-09  0:00:08   34
  1967  2.4572e-04  3.5492e-08  5.6125e-09  0:00:06   33
  1968  2.4285e-04  3.5469e-08  5.6124e-09  0:00:05   32
  1969  2.3917e-04  3.5203e-08  5.4303e-09  0:00:04   31

  iter  continuity  x-velocity  y-velocity     time/iter
  1970  2.3755e-04  3.5263e-08  5.3847e-09  0:00:09   30
  1971  2.4395e-04  3.5340e-08  5.3257e-09  0:00:07   29
  1972  2.4471e-04  3.5430e-08  5.3464e-09  0:00:05   28
  1973  2.4156e-04  3.5453e-08  5.4145e-09  0:00:04   27
  1974  2.4273e-04  3.5781e-08  5.4334e-09  0:00:03   26
  1975  2.4472e-04  3.5475e-08  5.4116e-09  0:00:02   25
  1976  2.5214e-04  3.5259e-08  5.4196e-09  0:00:07   24
  1977  2.4149e-04  3.5589e-08  5.4326e-09  0:00:05   23
  1978  2.4261e-04  3.5633e-08  5.3679e-09  0:00:04   22
  1979  2.3788e-04  3.5702e-08  5.3902e-09  0:00:03   21
  1980  2.3909e-04  3.5755e-08  5.3479e-09  0:00:02   20

  iter  continuity  x-velocity  y-velocity     time/iter
  1981  2.5372e-04  3.5444e-08  5.2970e-09  0:00:06   19
  1982  2.4481e-04  3.5528e-08  5.4537e-09  0:00:04   18
  1983  2.4292e-04  3.5519e-08  5.5118e-09  0:00:03   17
  1984  2.4810e-04  3.5197e-08  5.4535e-09  0:00:02   16
  1985  2.4460e-04  3.5193e-08  5.4452e-09  0:00:02   15
  1986  2.3586e-04  3.5621e-08  5.4278e-09  0:00:04   14
  1987  2.5434e-04  3.5267e-08  5.4221e-09  0:00:03   13
  1988  2.4766e-04  3.5691e-08  5.3830e-09  0:00:02   12
  1989  2.4850e-04  3.5572e-08  5.4452e-09  0:00:02   11
  1990  2.4655e-04  3.5634e-08  5.4732e-09  0:00:03   10
  1991  2.5439e-04  3.5324e-08  5.4543e-09  0:00:02    9

  iter  continuity  x-velocity  y-velocity     time/iter
  1992  2.5420e-04  3.5147e-08  5.4813e-09  0:00:02    8
  1993  2.5008e-04  3.5397e-08  5.5497e-09  0:00:01    7
  1994  2.5117e-04  3.5194e-08  5.5236e-09  0:00:01    6
  1995  2.4489e-04  3.5055e-08  5.4802e-09  0:00:01    5
  1996  2.4106e-04  3.5536e-08  5.4929e-09  0:00:01    4
  1997  2.4163e-04  3.5954e-08  5.3558e-09  0:00:01    3
  1998  2.3769e-04  3.5952e-08  5.3784e-09  0:00:00    2
  1999  2.4036e-04  3.6002e-08  5.3469e-09  0:00:00    1
  2000  2.6875e-04  3.5731e-08  5.3956e-09  0:00:00    0

> 
adjoint/                parallel/               server/
define/                 parametric-study/       solve/
display/                plot/                   surface/
exit                    preferences/            views/
file/                   print-license-usage
mesh/                   report/

> ;create rakes
surface/rake-surface cv_inlet -0.005 -0.065 -0.005 0.065 1000

> surface/rake-surface cv_outlet 1.005 -0.065 1.005 0.065 1000

> surface/rake-surface cv_top -0.005 0.065 1.005 0.065 1000

> surface/rake-surface cv_bottom -0.005 -0.065 1.005 -0.065 1000

> surface/point-surface free-stream -15 0

> 
adjoint/                parallel/               server/
define/                 parametric-study/       solve/
display/                plot/                   surface/
exit                    preferences/            views/
file/                   print-license-usage
mesh/                   report/

> ;export data
file/export/ascii NP_CVinlet_data cv_inlet () no pressure x-velocity y-velocity dx-velocity-dx dx-velocity-dy dy-velocity-dx dy-velocity-dy q no 
Writing "NP_CVinlet_data"...

Writing information to ascii file ...
Done.

ok


Overwrite confirmations (/file/set-batch-options ...)
are on -- will therefore ignore the following journal
Error: invalid command: ok


> file/export/ascii NP_CVoutlet_data cv_outlet () no pressure x-velocity y-velocity dx-velocity-dx dx-velocity-dy dy-velocity-dx dy-velocity-dy q no 
Writing "NP_CVoutlet_data"...

Writing information to ascii file ...
Done.

ok


Overwrite confirmations (/file/set-batch-options ...)
are on -- will therefore ignore the following journal
Error: invalid command: ok


> file/export/ascii NP_CVtop_data cv_top () no pressure x-velocity y-velocity dx-velocity-dx dx-velocity-dy dy-velocity-dx dy-velocity-dy q no 
Writing "NP_CVtop_data"...

Writing information to ascii file ...
Done.

ok


Overwrite confirmations (/file/set-batch-options ...)
are on -- will therefore ignore the following journal
Error: invalid command: ok


> file/export/ascii NP_CVbottom_data cv_bottom () no pressure x-velocity y-velocity dx-velocity-dx dx-velocity-dy dy-velocity-dx dy-velocity-dy q no 
Writing "NP_CVbottom_data"...

Writing information to ascii file ...
Done.

ok


Overwrite confirmations (/file/set-batch-options ...)
are on -- will therefore ignore the following journal
Error: invalid command: ok


> file/export/ascii air_properties free-stream () no density viscosity-lam q no 
Writing "air_properties"...

Writing information to ascii file ...
Done.

ok


Overwrite confirmations (/file/set-batch-options ...)
are on -- will therefore ignore the following journal
Error: invalid command: ok


> 
adjoint/                parallel/               server/
define/                 parametric-study/       solve/
display/                plot/                   surface/
exit                    preferences/            views/
file/                   print-license-usage
mesh/                   report/

> ;flag file to know when simulation is over
file/export/ascii flag_file free-stream () no pressure q no 
Writing "flag_file"...

Writing information to ascii file ...
Done.

ok


Overwrite confirmations (/file/set-batch-options ...)
are on -- will therefore ignore the following journal
Error: invalid command: ok


> 
adjoint/                parallel/               server/
define/                 parametric-study/       solve/
display/                plot/                   surface/
exit                    preferences/            views/
file/                   print-license-usage
mesh/                   report/

