Auto-Transcript Start Time:  20:45:02, 20 Jul 2025 GMT Summer Time 
Current Directory: "C:\Users\V.Chepuri\OneDrive - Cranfield University\irp\pablo\re_200000\New_Folder"

              Welcome to ANSYS Fluent 2024 R2

              Copyright 1987-2024 ANSYS, Inc. All Rights Reserved.
              Unauthorized use, distribution or duplication is prohibited.
              This product is subject to U.S. laws governing export and re-export.
              For full Legal Notice, see documentation.

Build Time: May 13 2024 11:17:42 EST  Build Id: 10192  
 
Connected License Server List:	1055@cclic-2.central.cranfield.ac.uk

*********************************************
Info: Your license enables 4-way parallel execution.
For faster simulations, please start the application with the appropriate parallel options.
*********************************************


     --------------------------------------------------------------
     This is an academic version of ANSYS FLUENT. Usage of this product
     license is limited to the terms and conditions specified in your ANSYS
     license form, additional terms section.
     --------------------------------------------------------------
Host spawning Node 0 on machine "37PCL051" (win64).

-------------------------------------------------------------------------------
ID    Hostname  Core  O.S.         PID   Vendor                          
-------------------------------------------------------------------------------
n0    37PCL051  1/28  Windows-x64  3564  Intel(R) Core(TM) i7-14700      
host  37PCL051        Windows-x64  8996  Intel(R) Core(TM) i7-14700      

MPI Option Selected: intel
-------------------------------------------------------------------------------

Cleanup script file is C:\\Users\\V.Chepuri\\OneDrive - Cranfield University\\irp\\pablo\\re_200000\\New_Folder\\cleanup-fluent-37PCL051-8996.bat

Posting ANSYS Product Improvement Program startup data
Done.

> (cx-gui-do cx-activate-item "Key Behavioral Changes*PanelButtons*PushButton1(OK)")
(cx-gui-do cx-activate-item "MenuBar*ReadSubMenu*Case...")
(cx-gui-do cx-set-file-dialog-entries "Select File" '( "template_medium.cas.h5") "CFF Case Files (*.cas.h5 *.msh.h5 *.MSH.h5 )")
Fast-loading "C:\PROGRA~1\ANSYSI~1\v242\fluent\fluent24.2.0\\addons\afd\lib\hdfio.bin"
Done.
Note: Rank = 0: Process affinity not being set (6).

Reading from 37PCL051:"C:/Users/V.Chepuri/OneDrive - Cranfield University/irp/pablo/re_200000/New_Folder/template_medium.cas.h5" in NODE0 mode ...
  Reading mesh ...
      181070 cells,     4 cell zones ...
          36824 mixed cells,  zone id: 2
         108032 mixed cells,  zone id: 4
          27008 mixed cells,  zone id: 12
           9206 mixed cells,  zone id: 11
      309160 faces,    14 face zones ...
          65137 2D interior faces,  zone id: 3
         181145 2D interior faces,  zone id: 5
             42 2D velocity-inlet faces,  zone id: 6
             38 2D pressure-outlet faces,  zone id: 7
             40 2D velocity-inlet faces,  zone id: 8
            458 2D interior faces,  zone id: 9
            456 2D interior faces,  zone id: 10
            228 2D parent-face faces,  zone id: 19
            229 2D parent-face faces,  zone id: 18
             20 2D parent-face faces,  zone id: 17
             19 2D parent-face faces,  zone id: 16
             21 2D parent-face faces,  zone id: 15
          45157 2D parent-face faces,  zone id: 14
          16170 2D parent-face faces,  zone id: 13
      102461 nodes,     1 node zone  ...
  Done.


Building...
     mesh
     materials,
     interface,
     domains,
	mixture
     zones,
	outlet
	inlet
	interior-fluid
	interior-porous
	symmetry
	upper
	lower
	fluid
	porous
WARNING: "Smooth" contours can't be displayed when node-values is set to off. Changing the Coloring type to "Banded".
     parallel,
Done.
(cx-gui-do cx-activate-item "ToolBar*Mesh Display*fl_mesh_svg_graphics_toolbar")
(cx-gui-do cx-activate-item "Mesh Display*PanelButtons*PushButton1(OK)")
(cx-gui-do cx-activate-item "Mesh Display*PanelButtons*PushButton2(Cancel)")
(cx-gui-do cx-set-list-tree-selections "NavigationPane*Frame2*Table1*List_Tree2" (list "Setup|Materials|Fluid|air"))
(cx-gui-do cx-set-list-tree-selections "NavigationPane*Frame2*Table1*List_Tree2" (list "Setup|Materials|Fluid|air"))
(cx-gui-do cx-activate-item "NavigationPane*Frame2*Table1*List_Tree2")
(cx-gui-do cx-set-list-tree-selections "NavigationPane*Frame2*Table1*List_Tree2" (list "Setup|Materials|Fluid|air"))
(cx-gui-do cx-activate-item "Create/Edit Materials*PanelButtons*PushButton1(Close)")
(cx-gui-do cx-set-list-tree-selections "NavigationPane*Frame2*Table1*List_Tree2" (list "Setup|Boundary Conditions|Inlet|inlet (velocity-inlet, id=6)"))
(cx-gui-do cx-set-list-tree-selections "NavigationPane*Frame2*Table1*List_Tree2" (list "Setup|Boundary Conditions|Inlet|inlet (velocity-inlet, id=6)"))
(cx-gui-do cx-activate-item "NavigationPane*Frame2*Table1*List_Tree2")
(cx-gui-do cx-set-list-tree-selections "NavigationPane*Frame2*Table1*List_Tree2" (list "Setup|Boundary Conditions|Inlet|inlet (velocity-inlet, id=6)"))
(cx-gui-do cx-activate-tab-index "Velocity Inlet*Frame2*Frame2" 0)
(cx-gui-do cx-activate-tab-index "Velocity Inlet*Frame2*Frame2" 1)
(cx-gui-do cx-activate-tab-index "Velocity Inlet*Frame2*Frame2" 0)
(cx-gui-do cx-activate-tab-index "Velocity Inlet*Frame2*Frame2" 2)
(cx-gui-do cx-activate-tab-index "Velocity Inlet*Frame2*Frame2" 0)
(cx-gui-do cx-activate-tab-index "Velocity Inlet*Frame2*Frame2" 3)
(cx-gui-do cx-activate-tab-index "Velocity Inlet*Frame2*Frame2" 0)
(cx-gui-do cx-activate-tab-index "Velocity Inlet*Frame2*Frame2" 4)
(cx-gui-do cx-activate-tab-index "Velocity Inlet*Frame2*Frame2" 0)
(cx-gui-do cx-activate-tab-index "Velocity Inlet*Frame2*Frame2" 5)
(cx-gui-do cx-activate-tab-index "Velocity Inlet*Frame2*Frame2" 0)
(cx-gui-do cx-activate-tab-index "Velocity Inlet*Frame2*Frame2" 6)
(cx-gui-do cx-activate-tab-index "Velocity Inlet*Frame2*Frame2" 0)
(cx-gui-do cx-activate-tab-index "Velocity Inlet*Frame2*Frame2" 7)
(cx-gui-do cx-activate-tab-index "Velocity Inlet*Frame2*Frame2" 0)
(cx-gui-do cx-activate-tab-index "Velocity Inlet*Frame2*Frame2" 8)
(cx-gui-do cx-activate-tab-index "Velocity Inlet*Frame2*Frame2" 0)
(cx-gui-do cx-activate-item "Velocity Inlet*PanelButtons*PushButton2(Cancel)")
(cx-gui-do cx-set-list-tree-selections "NavigationPane*Frame2*Table1*List_Tree2" (list "Solution|Methods"))
(cx-gui-do cx-set-list-tree-selections "NavigationPane*Frame2*Table1*List_Tree2" (list "Solution|Methods"))
(cx-gui-do cx-activate-item "NavigationPane*Frame2*Table1*List_Tree2")
(cx-gui-do cx-set-list-tree-selections "NavigationPane*Frame2*Table1*List_Tree2" (list "Solution|Methods"))
(cx-gui-do cx-activate-item "MenuBar*ReadSubMenu*Journal...")

Reading journal file C:/Users/V.Chepuri/OneDrive - Cranfield University/irp/pablo/re_200000/New_Folder/template.jou...

> ;change to correct dir

file/read-case template_medium.cas.h5 Note: Rank = 0: Process affinity not being set (6).

       Clearing partially read grid.

Reading from 37PCL051:"C:\Users\V.Chepuri\OneDrive - Cranfield University\irp\pablo\re_200000\New_Folder\template_medium.cas.h5" in NODE0 mode ...
  Reading mesh ...
      181070 cells,     4 cell zones ...
          36824 mixed cells,  zone id: 2
         108032 mixed cells,  zone id: 4
          27008 mixed cells,  zone id: 12
           9206 mixed cells,  zone id: 11
      309160 faces,    14 face zones ...
          65137 2D interior faces,  zone id: 3
         181145 2D interior faces,  zone id: 5
             42 2D velocity-inlet faces,  zone id: 6
             38 2D pressure-outlet faces,  zone id: 7
             40 2D velocity-inlet faces,  zone id: 8
            458 2D interior faces,  zone id: 9
            456 2D interior faces,  zone id: 10
            228 2D parent-face faces,  zone id: 19
            229 2D parent-face faces,  zone id: 18
             20 2D parent-face faces,  zone id: 17
             19 2D parent-face faces,  zone id: 16
             21 2D parent-face faces,  zone id: 15
          45157 2D parent-face faces,  zone id: 14
          16170 2D parent-face faces,  zone id: 13
      102461 nodes,     1 node zone  ...
  Done.


Building...
     mesh
     materials,
     interface,
     domains,
	mixture
     zones,
	outlet
	inlet
	interior-fluid
	interior-porous
	symmetry
	upper
	lower
	fluid
	porous
WARNING: "Smooth" contours can't be displayed when node-values is set to off. Changing the Coloring type to "Banded".
     parallel,
Done.
OK


Overwrite confirmations (/file/set-batch-options ...)
are on -- will therefore ignore the following journal
Error: invalid command: OK


> 
adjoint/                parallel/               server/
define/                 parametric-study/       solve/
display/                plot/                   surface/
exit                    preferences/            views/
file/                   print-license-usage
mesh/                   report/

> ;modify permeability parameters
define/named-expressions/edit a definition " 0.0 " q q q

> define/named-expressions/edit b definition " 0.0 " q q q

> define/named-expressions/edit c definition " 0.0 " q q q

> define/named-expressions/edit d definition " 0.0 " q q q

> define/named-expressions/edit e1 definition " -5.0 " q q q

> define/named-expressions/edit a2 definition " 0.0 " q q q

> define/named-expressions/edit b2 definition " 0.0 " q q q

> define/named-expressions/edit c2 definition " 0.0 " q q q

> define/named-expressions/edit d2 definition " 0.0 " q q q

> define/named-expressions/edit e2 definition " -5.0 " q q q

> 
adjoint/                parallel/               server/
define/                 parametric-study/       solve/
display/                plot/                   surface/
exit                    preferences/            views/
file/                   print-license-usage
mesh/                   report/

> ;run simulation
solve/initialize/hyb-initialization 
Initialize using the hybrid initialization method.

Checking case topology... 
-This case has both inlets & outlets 
-Pressure information is not available at the boundaries.
 Case will be initialized with constant pressure

	iter		scalar-0

	1		1.000000e+00
	2		1.279864e-05
	3		9.783976e-07
	4		3.376278e-07
	5		6.640984e-08
	6		3.570003e-08
	7		3.637620e-08
	8		3.987070e-08
	9		3.226265e-08
	10		3.392983e-08

Hybrid initialization is done.


> solve/iterate 2000

  iter  continuity  x-velocity  y-velocity           k       omega     time/iter
     1  1.0000e+00  5.1271e-04  3.6783e-03  5.2464e-01  3.1133e-01  0:00:00 1999
     2  1.0000e+00  8.4016e-04  1.8788e-03  3.5752e-01  2.6689e-01  0:00:00 1998
     3  6.2960e-01  5.8052e-04  1.0010e-03  1.9029e-01  2.1264e-01  0:33:17 1997
     4  4.3973e-01  4.3555e-04  6.1585e-04  9.1859e-02  1.5695e-01  0:26:37 1996
     5  3.4020e-01  3.4104e-04  4.5337e-04  4.9760e-02  1.1017e-01  0:21:17 1995
     6  2.8132e-01  2.8010e-04  3.9137e-04  3.2701e-02  7.5602e-02  0:17:01 1994
     7  2.3346e-01  2.3391e-04  3.3466e-04  2.4470e-02  5.2895e-02  0:13:36 1993
     8  1.8525e-01  2.0182e-04  2.9300e-04  1.9555e-02  3.8618e-02  0:10:53 1992
     9  1.4197e-01  1.7979e-04  2.5742e-04  1.6156e-02  2.9433e-02  0:15:20 1991
    10  1.0786e-01  1.6280e-04  2.3147e-04  1.3686e-02  2.3324e-02  0:12:16 1990
    11  8.2197e-02  1.4941e-04  2.1155e-04  1.1843e-02  1.9079e-02  0:09:48 1989

  iter  continuity  x-velocity  y-velocity           k       omega     time/iter
    12  6.2564e-02  1.3950e-04  1.9623e-04  1.0438e-02  1.6018e-02  0:07:50 1988
    13  4.9029e-02  1.3101e-04  1.8335e-04  9.2708e-03  1.3556e-02  0:06:16 1987
    14  3.9666e-02  1.2350e-04  1.7219e-04  8.3497e-03  1.1686e-02  0:05:01 1986
    15  3.3231e-02  1.1568e-04  1.6286e-04  7.5920e-03  1.0225e-02  0:10:37 1985
    16  2.8935e-02  1.1023e-04  1.5356e-04  6.9482e-03  9.0588e-03  0:08:30 1984
    17  2.5336e-02  1.0456e-04  1.4555e-04  6.3893e-03  8.1116e-03  0:06:48 1983
    18  2.2821e-02  9.9675e-05  1.3838e-04  5.8994e-03  7.3292e-03  0:05:26 1982
    19  2.0837e-02  9.5381e-05  1.3152e-04  5.4700e-03  6.6732e-03  0:04:21 1981
    20  1.9155e-02  9.1160e-05  1.2512e-04  5.0951e-03  6.1160e-03  0:03:28 1980
    21  1.7843e-02  8.7811e-05  1.1898e-04  4.7652e-03  5.6377e-03  0:09:22 1979
    22  1.6595e-02  8.4268e-05  1.1332e-04  4.4716e-03  5.2227e-03  0:07:30 1978

  iter  continuity  x-velocity  y-velocity           k       omega     time/iter
    23  1.5812e-02  8.1553e-05  1.0779e-04  4.2103e-03  4.8599e-03  0:06:00 1977
    24  1.4843e-02  7.8517e-05  1.0274e-04  3.9771e-03  4.5400e-03  0:04:48 1976
    25  1.4226e-02  7.6054e-05  9.7787e-05  3.7666e-03  4.2563e-03  0:03:50 1975
    26  1.3515e-02  7.3742e-05  9.3101e-05  3.5750e-03  4.0029e-03  0:03:04 1974
    27  1.2929e-02  7.1561e-05  8.8653e-05  3.4016e-03  3.7754e-03  0:09:02 1973
    28  1.2380e-02  6.9563e-05  8.4437e-05  3.2428e-03  3.5702e-03  0:07:13 1972
    29  1.1884e-02  6.7687e-05  8.0450e-05  3.0987e-03  3.3842e-03  0:05:46 1971
    30  1.1563e-02  6.6021e-05  7.6613e-05  2.9658e-03  3.2151e-03  0:04:37 1970
    31  1.1124e-02  6.4424e-05  7.2989e-05  2.8432e-03  3.0608e-03  0:10:15 1969
    32  1.0802e-02  6.2937e-05  6.9584e-05  2.7304e-03  2.9197e-03  0:08:12 1968
    33  1.0506e-02  6.1627e-05  6.6249e-05  2.6261e-03  2.7904e-03  0:06:33 1967

  iter  continuity  x-velocity  y-velocity           k       omega     time/iter
    34  1.0200e-02  6.0437e-05  6.3077e-05  2.5282e-03  2.6716e-03  0:05:14 1966
    35  9.9197e-03  5.9303e-05  6.0083e-05  2.4365e-03  2.5621e-03  0:04:11 1965
    36  9.6866e-03  5.8271e-05  5.7247e-05  2.3510e-03  2.4609e-03  0:03:21 1964
    37  9.5613e-03  5.7324e-05  5.4531e-05  2.2714e-03  2.3669e-03  0:09:13 1963
    38  9.3928e-03  5.6402e-05  5.1978e-05  2.1975e-03  2.2795e-03  0:07:22 1962
    39  9.1531e-03  5.5616e-05  4.9545e-05  2.1287e-03  2.1982e-03  0:05:54 1961
    40  8.9962e-03  5.4807e-05  4.7264e-05  2.0647e-03  2.1220e-03  0:04:43 1960
    41  8.8726e-03  5.4138e-05  4.5071e-05  2.0063e-03  2.0510e-03  0:03:46 1959
    42  8.8293e-03  5.3326e-05  4.3077e-05  1.9519e-03  1.9845e-03  0:03:01 1958
    43  8.7302e-03  5.2784e-05  4.1058e-05  1.9012e-03  1.9219e-03  0:08:56 1957
    44  8.7141e-03  5.2089e-05  3.9249e-05  1.8541e-03  1.8628e-03  0:07:09 1956

  iter  continuity  x-velocity  y-velocity           k       omega     time/iter
    45  8.6038e-03  5.1628e-05  3.7451e-05  1.8100e-03  1.8071e-03  0:05:43 1955
    46  8.5780e-03  5.1004e-05  3.5850e-05  1.7680e-03  1.7547e-03  0:04:34 1954
    47  8.4420e-03  5.0442e-05  3.4310e-05  1.7289e-03  1.7048e-03  0:03:39 1953
    48  8.4430e-03  5.0029e-05  3.2829e-05  1.6923e-03  1.6575e-03  0:02:55 1952
    49  8.3680e-03  4.9635e-05  3.1412e-05  1.6574e-03  1.6127e-03  0:08:50 1951
    50  8.2878e-03  4.9135e-05  3.0101e-05  1.6242e-03  1.5699e-03  0:07:04 1950
    51  8.2115e-03  4.8676e-05  2.8861e-05  1.5932e-03  1.5295e-03  0:05:39 1949
    52  8.1337e-03  4.8219e-05  2.7689e-05  1.5638e-03  1.4910e-03  0:04:31 1948
    53  8.0860e-03  4.7822e-05  2.6586e-05  1.5352e-03  1.4543e-03  0:03:37 1947
    54  7.9890e-03  4.7382e-05  2.5529e-05  1.5081e-03  1.4189e-03  0:02:53 1946
    55  7.9367e-03  4.6937e-05  2.4543e-05  1.4827e-03  1.3849e-03  0:02:19 1945

  iter  continuity  x-velocity  y-velocity           k       omega     time/iter
    56  7.8906e-03  4.6472e-05  2.3608e-05  1.4582e-03  1.3523e-03  0:08:20 1944
    57  7.8830e-03  4.6019e-05  2.2743e-05  1.4344e-03  1.3212e-03  0:06:39 1943
    58  7.8689e-03  4.5609e-05  2.1927e-05  1.4114e-03  1.2915e-03  0:05:19 1942
    59  7.8281e-03  4.5180e-05  2.1156e-05  1.3897e-03  1.2628e-03  0:04:15 1941
    60  7.8061e-03  4.4784e-05  2.0418e-05  1.3686e-03  1.2349e-03  0:03:24 1940
    61  7.7986e-03  4.4339e-05  1.9730e-05  1.3482e-03  1.2082e-03  0:02:43 1939
    62  7.8053e-03  4.3900e-05  1.9087e-05  1.3287e-03  1.1826e-03  0:08:38 1938
    63  7.8118e-03  4.3456e-05  1.8484e-05  1.3099e-03  1.1578e-03  0:06:54 1937
    64  7.8228e-03  4.3039e-05  1.7905e-05  1.2917e-03  1.1341e-03  0:05:31 1936
    65  7.8275e-03  4.2635e-05  1.7353e-05  1.2734e-03  1.1110e-03  0:04:25 1935
    66  7.7990e-03  4.2233e-05  1.6836e-05  1.2566e-03  1.0887e-03  0:03:32 1934

  iter  continuity  x-velocity  y-velocity           k       omega     time/iter
    67  7.8012e-03  4.1863e-05  1.6355e-05  1.2395e-03  1.0672e-03  0:02:49 1933
    68  7.7990e-03  4.1463e-05  1.5912e-05  1.2232e-03  1.0464e-03  0:08:42 1932
    69  7.8382e-03  4.1073e-05  1.5496e-05  1.2077e-03  1.0264e-03  0:06:57 1931
    70  7.8578e-03  4.0702e-05  1.5111e-05  1.1921e-03  1.0071e-03  0:05:34 1930
    71  7.8645e-03  4.0380e-05  1.4737e-05  1.1774e-03  9.8839e-04  0:04:27 1929
    72  7.8462e-03  4.0028e-05  1.4389e-05  1.1629e-03  9.7048e-04  0:03:33 1928
    73  7.8723e-03  3.9710e-05  1.4079e-05  1.1489e-03  9.5291e-04  0:02:51 1927
    74  7.8810e-03  3.9406e-05  1.3806e-05  1.1352e-03  9.3587e-04  0:08:42 1926
    75  7.8830e-03  3.9094e-05  1.3541e-05  1.1218e-03  9.1959e-04  0:06:57 1925
    76  7.9607e-03  3.8787e-05  1.3289e-05  1.1088e-03  9.0379e-04  0:05:33 1924
    77  8.0267e-03  3.8470e-05  1.3058e-05  1.0961e-03  8.8857e-04  0:04:27 1923

  iter  continuity  x-velocity  y-velocity           k       omega     time/iter
    78  8.0445e-03  3.8144e-05  1.2845e-05  1.0837e-03  8.7378e-04  0:09:58 1922
    79  8.0746e-03  3.7874e-05  1.2650e-05  1.0716e-03  8.5961e-04  0:07:58 1921
    80  8.1113e-03  3.7634e-05  1.2469e-05  1.0597e-03  8.4590e-04  0:06:22 1920
    81  8.0978e-03  3.7410e-05  1.2297e-05  1.0483e-03  8.3262e-04  0:05:05 1919
    82  8.1072e-03  3.7139e-05  1.2140e-05  1.0373e-03  8.1964e-04  0:04:04 1918
    83  8.1053e-03  3.6868e-05  1.1990e-05  1.0263e-03  8.0702e-04  0:03:15 1917
    84  8.1051e-03  3.6632e-05  1.1854e-05  1.0156e-03  7.9478e-04  0:02:36 1916
    85  8.1644e-03  3.6414e-05  1.1730e-05  1.0050e-03  7.8294e-04  0:08:28 1915
    86  8.1856e-03  3.6184e-05  1.1609e-05  9.9451e-04  7.7141e-04  0:06:46 1914
    87  8.1571e-03  3.5926e-05  1.1505e-05  9.8423e-04  7.6015e-04  0:05:25 1913
    88  8.1519e-03  3.5692e-05  1.1400e-05  9.7396e-04  7.4925e-04  0:04:20 1912

  iter  continuity  x-velocity  y-velocity           k       omega     time/iter
    89  8.1684e-03  3.5491e-05  1.1312e-05  9.6392e-04  7.3873e-04  0:03:28 1911
    90  8.1732e-03  3.5275e-05  1.1214e-05  9.5411e-04  7.2839e-04  0:02:46 1910
    91  8.2312e-03  3.5050e-05  1.1120e-05  9.4483e-04  7.1837e-04  0:08:35 1909
    92  8.2750e-03  3.4808e-05  1.1034e-05  9.3545e-04  7.0863e-04  0:06:51 1908
    93  8.2996e-03  3.4547e-05  1.0941e-05  9.2618e-04  6.9911e-04  0:05:29 1907
    94  8.3450e-03  3.4284e-05  1.0863e-05  9.1705e-04  6.8987e-04  0:04:23 1906
    95  8.4151e-03  3.4037e-05  1.0779e-05  9.0818e-04  6.8079e-04  0:03:30 1905
    96  8.4193e-03  3.3785e-05  1.0704e-05  8.9944e-04  6.7186e-04  0:02:48 1904
    97  8.3786e-03  3.3523e-05  1.0621e-05  8.9091e-04  6.6311e-04  0:02:14 1903
    98  8.3530e-03  3.3273e-05  1.0524e-05  8.8229e-04  6.5452e-04  0:08:08 1902
    99  8.3170e-03  3.3025e-05  1.0429e-05  8.7386e-04  6.4619e-04  0:06:30 1901

  iter  continuity  x-velocity  y-velocity           k       omega     time/iter
   100  8.2843e-03  3.2769e-05  1.0331e-05  8.6593e-04  6.3806e-04  0:05:12 1900
   101  8.2102e-03  3.2489e-05  1.0232e-05  8.5823e-04  6.3020e-04  0:04:09 1899
   102  8.1502e-03  3.2217e-05  1.0141e-05  8.5059e-04  6.2256e-04  0:03:19 1898
   103  8.1361e-03  3.1950e-05  1.0046e-05  8.4290e-04  6.1507e-04  0:02:39 1897
   104  8.0853e-03  3.1684e-05  9.9434e-06  8.3529e-04  6.0771e-04  0:08:27 1896
   105  8.0785e-03  3.1436e-05  9.8451e-06  8.2786e-04  6.0065e-04  0:06:45 1895
   106  8.0212e-03  3.1176e-05  9.7463e-06  8.2058e-04  5.9383e-04  0:05:24 1894
   107  7.9446e-03  3.0910e-05  9.6325e-06  8.1354e-04  5.8717e-04  0:04:19 1893
   108  7.8778e-03  3.0649e-05  9.5268e-06  8.0648e-04  5.8057e-04  0:03:27 1892
   109  7.8305e-03  3.0411e-05  9.4256e-06  7.9949e-04  5.7413e-04  0:02:46 1891
   110  7.7492e-03  3.0195e-05  9.3259e-06  7.9266e-04  5.6804e-04  0:08:30 1890

  iter  continuity  x-velocity  y-velocity           k       omega     time/iter
   111  7.6799e-03  2.9991e-05  9.2284e-06  7.8592e-04  5.6200e-04  0:06:48 1889
   112  7.6178e-03  2.9772e-05  9.1214e-06  7.7929e-04  5.5595e-04  0:05:26 1888
   113  7.5664e-03  2.9544e-05  9.0156e-06  7.7270e-04  5.4995e-04  0:04:21 1887
   114  7.5183e-03  2.9311e-05  8.9148e-06  7.6624e-04  5.4405e-04  0:03:29 1886
   115  7.4739e-03  2.9081e-05  8.8227e-06  7.5986e-04  5.3824e-04  0:02:47 1885
   116  7.4072e-03  2.8834e-05  8.7276e-06  7.5362e-04  5.3256e-04  0:02:13 1884
   117  7.3382e-03  2.8603e-05  8.6336e-06  7.4733e-04  5.2705e-04  0:08:03 1883
   118  7.2736e-03  2.8382e-05  8.5344e-06  7.4100e-04  5.2171e-04  0:06:26 1882
   119  7.1815e-03  2.8159e-05  8.4253e-06  7.3471e-04  5.1652e-04  0:05:09 1881
   120  7.0542e-03  2.7932e-05  8.3215e-06  7.2867e-04  5.1129e-04  0:04:07 1880
   121  6.9702e-03  2.7709e-05  8.2196e-06  7.2274e-04  5.0625e-04  0:03:18 1879

  iter  continuity  x-velocity  y-velocity           k       omega     time/iter
   122  6.9260e-03  2.7477e-05  8.1237e-06  7.1697e-04  5.0127e-04  0:08:54 1878
   123  6.8531e-03  2.7243e-05  8.0262e-06  7.1111e-04  4.9641e-04  0:07:07 1877
   124  6.7559e-03  2.7007e-05  7.9284e-06  7.0528e-04  4.9171e-04  0:05:41 1876
   125  6.6889e-03  2.6801e-05  7.8282e-06  6.9979e-04  4.8700e-04  0:04:33 1875
   126  6.6303e-03  2.6607e-05  7.7346e-06  6.9448e-04  4.8233e-04  0:03:38 1874
   127  6.5392e-03  2.6401e-05  7.6345e-06  6.8909e-04  4.7770e-04  0:02:54 1873
   128  6.4519e-03  2.6206e-05  7.5282e-06  6.8373e-04  4.7318e-04  0:08:34 1872
   129  6.3659e-03  2.5998e-05  7.4240e-06  6.7856e-04  4.6869e-04  0:06:51 1871
   130  6.2977e-03  2.5804e-05  7.3254e-06  6.7352e-04  4.6429e-04  0:05:28 1870
   131  6.2107e-03  2.5613e-05  7.2358e-06  6.6854e-04  4.6002e-04  0:04:23 1869
   132  6.1566e-03  2.5432e-05  7.1433e-06  6.6344e-04  4.5590e-04  0:03:30 1868

  iter  continuity  x-velocity  y-velocity           k       omega     time/iter
   133  6.0979e-03  2.5255e-05  7.0533e-06  6.5821e-04  4.5183e-04  0:02:48 1867
   134  6.0107e-03  2.5060e-05  6.9592e-06  6.5297e-04  4.4776e-04  0:08:27 1866
   135  5.9108e-03  2.4873e-05  6.8589e-06  6.4789e-04  4.4383e-04  0:06:46 1865
   136  5.8506e-03  2.4687e-05  6.7606e-06  6.4285e-04  4.4006e-04  0:05:24 1864
   137  5.7965e-03  2.4506e-05  6.6721e-06  6.3793e-04  4.3632e-04  0:04:19 1863
   138  5.7143e-03  2.4320e-05  6.5788e-06  6.3307e-04  4.3258e-04  0:03:27 1862
   139  5.6201e-03  2.4140e-05  6.4905e-06  6.2809e-04  4.2890e-04  0:02:46 1861
   140  5.5198e-03  2.3974e-05  6.3996e-06  6.2323e-04  4.2545e-04  0:08:25 1860
   141  5.4208e-03  2.3808e-05  6.3085e-06  6.1845e-04  4.2199e-04  0:06:43 1859
   142  5.3465e-03  2.3638e-05  6.2215e-06  6.1380e-04  4.1838e-04  0:05:23 1858
   143  5.2884e-03  2.3473e-05  6.1405e-06  6.0925e-04  4.1477e-04  0:04:18 1857

  iter  continuity  x-velocity  y-velocity           k       omega     time/iter
   144  5.2225e-03  2.3326e-05  6.0621e-06  6.0479e-04  4.1115e-04  0:03:26 1856
   145  5.1737e-03  2.3173e-05  5.9815e-06  6.0030e-04  4.0758e-04  0:02:45 1855
   146  5.1366e-03  2.3028e-05  5.8945e-06  5.9573e-04  4.0411e-04  0:02:12 1854
   147  5.0635e-03  2.2888e-05  5.8150e-06  5.9122e-04  4.0068e-04  0:07:56 1853
   148  5.0165e-03  2.2762e-05  5.7367e-06  5.8661e-04  3.9728e-04  0:06:21 1852
   149  4.9780e-03  2.2629e-05  5.6589e-06  5.8224e-04  3.9394e-04  0:05:04 1851
   150  4.9455e-03  2.2506e-05  5.5784e-06  5.7798e-04  3.9053e-04  0:04:03 1850
   151  4.8802e-03  2.2364e-05  5.5012e-06  5.7374e-04  3.8725e-04  0:03:15 1849
   152  4.8406e-03  2.2219e-05  5.4205e-06  5.6953e-04  3.8400e-04  0:02:36 1848
   153  4.7893e-03  2.2079e-05  5.3403e-06  5.6529e-04  3.8084e-04  0:08:14 1847
   154  4.7520e-03  2.1927e-05  5.2680e-06  5.6111e-04  3.7772e-04  0:06:35 1846

  iter  continuity  x-velocity  y-velocity           k       omega     time/iter
   155  4.7192e-03  2.1783e-05  5.1954e-06  5.5712e-04  3.7461e-04  0:05:16 1845
   156  4.7037e-03  2.1653e-05  5.1263e-06  5.5323e-04  3.7152e-04  0:04:12 1844
   157  4.6597e-03  2.1515e-05  5.0579e-06  5.4924e-04  3.6843e-04  0:03:22 1843
   158  4.6104e-03  2.1393e-05  4.9846e-06  5.4526e-04  3.6538e-04  0:02:41 1842
   159  4.6479e-03  2.1296e-05  4.9107e-06  5.4148e-04  3.6232e-04  0:08:17 1841
   160  4.6840e-03  2.1185e-05  4.8436e-06  5.3775e-04  3.5929e-04  0:06:38 1840
   161  4.6460e-03  2.1048e-05  4.7838e-06  5.3388e-04  3.5636e-04  0:05:18 1839
   162  4.6242e-03  2.0904e-05  4.7198e-06  5.2996e-04  3.5348e-04  0:04:14 1838
   163  4.5917e-03  2.0776e-05  4.6532e-06  5.2594e-04  3.5067e-04  0:03:23 1837
   164  4.5586e-03  2.0656e-05  4.5886e-06  5.2192e-04  3.4781e-04  0:02:42 1836
   165  4.5232e-03  2.0543e-05  4.5246e-06  5.1799e-04  3.4506e-04  0:02:10 1835

  iter  continuity  x-velocity  y-velocity           k       omega     time/iter
   166  4.4883e-03  2.0431e-05  4.4623e-06  5.1406e-04  3.4246e-04  0:07:51 1834
   167  4.4756e-03  2.0308e-05  4.4041e-06  5.1020e-04  3.3987e-04  0:06:16 1833
   168  4.4748e-03  2.0181e-05  4.3522e-06  5.0622e-04  3.3729e-04  0:05:01 1832
   169  4.4888e-03  2.0058e-05  4.2938e-06  5.0226e-04  3.3470e-04  0:04:01 1831
   170  4.4746e-03  1.9942e-05  4.2344e-06  4.9833e-04  3.3237e-04  0:09:18 1830
   171  4.4776e-03  1.9825e-05  4.1718e-06  4.9451e-04  3.2996e-04  0:07:26 1829
   172  4.5117e-03  1.9719e-05  4.1186e-06  4.9073e-04  3.2743e-04  0:05:57 1828
   173  4.5306e-03  1.9616e-05  4.0709e-06  4.8698e-04  3.2484e-04  0:04:45 1827
   174  4.5115e-03  1.9521e-05  4.0162e-06  4.8325e-04  3.2219e-04  0:03:48 1826
   175  4.5070e-03  1.9418e-05  3.9689e-06  4.7946e-04  3.1956e-04  0:03:02 1825
   176  4.4794e-03  1.9319e-05  3.9186e-06  4.7561e-04  3.1699e-04  0:02:26 1824

  iter  continuity  x-velocity  y-velocity           k       omega     time/iter
   177  4.4639e-03  1.9215e-05  3.8654e-06  4.7173e-04  3.1447e-04  0:08:01 1823
   178  4.4732e-03  1.9118e-05  3.8191e-06  4.6781e-04  3.1202e-04  0:06:25 1822
   179  4.4797e-03  1.9009e-05  3.7716e-06  4.6394e-04  3.0963e-04  0:05:08 1821
   180  4.4731e-03  1.8902e-05  3.7207e-06  4.6033e-04  3.0715e-04  0:04:06 1820
   181  4.4886e-03  1.8793e-05  3.6723e-06  4.5682e-04  3.0477e-04  0:03:17 1819
   182  4.5145e-03  1.8686e-05  3.6291e-06  4.5326e-04  3.0241e-04  0:02:37 1818
   183  4.5090e-03  1.8573e-05  3.5858e-06  4.4973e-04  3.0009e-04  0:08:09 1817
   184  4.4977e-03  1.8463e-05  3.5467e-06  4.4642e-04  2.9782e-04  0:06:31 1816
   185  4.4947e-03  1.8358e-05  3.5033e-06  4.4322e-04  2.9551e-04  0:05:13 1815
   186  4.5063e-03  1.8254e-05  3.4604e-06  4.4006e-04  2.9319e-04  0:04:10 1814
   187  4.5121e-03  1.8161e-05  3.4256e-06  4.3689e-04  2.9087e-04  0:03:20 1813

  iter  continuity  x-velocity  y-velocity           k       omega     time/iter
   188  4.5117e-03  1.8058e-05  3.3899e-06  4.3389e-04  2.8852e-04  0:02:40 1812
   189  4.5106e-03  1.7945e-05  3.3540e-06  4.3122e-04  2.8618e-04  0:02:08 1811
   190  4.5084e-03  1.7830e-05  3.3269e-06  4.2848e-04  2.8384e-04  0:07:44 1810
   191  4.5122e-03  1.7716e-05  3.2937e-06  4.2573e-04  2.8161e-04  0:06:11 1809
   192  4.5326e-03  1.7614e-05  3.2641e-06  4.2282e-04  2.7944e-04  0:04:57 1808
   193  4.5380e-03  1.7507e-05  3.2387e-06  4.2008e-04  2.7730e-04  0:03:57 1807
   194  4.5509e-03  1.7395e-05  3.2095e-06  4.1735e-04  2.7512e-04  0:03:10 1806
   195  4.5702e-03  1.7275e-05  3.1867e-06  4.1477e-04  2.7301e-04  0:02:32 1805
   196  4.6002e-03  1.7169e-05  3.1680e-06  4.1231e-04  2.7103e-04  0:08:02 1804
   197  4.6045e-03  1.7063e-05  3.1434e-06  4.0993e-04  2.6908e-04  0:06:25 1803
   198  4.6127e-03  1.6954e-05  3.1187e-06  4.0756e-04  2.6706e-04  0:05:08 1802

  iter  continuity  x-velocity  y-velocity           k       omega     time/iter
   199  4.6166e-03  1.6839e-05  3.1020e-06  4.0538e-04  2.6499e-04  0:04:06 1801
   200  4.6077e-03  1.6725e-05  3.0869e-06  4.0325e-04  2.6319e-04  0:03:17 1800
   201  4.6036e-03  1.6591e-05  3.0657e-06  4.0123e-04  2.6135e-04  0:02:38 1799
   202  4.6066e-03  1.6454e-05  3.0502e-06  3.9920e-04  2.5934e-04  0:02:06 1798
   203  4.6154e-03  1.6315e-05  3.0342e-06  3.9729e-04  2.5727e-04  0:07:40 1797
   204  4.6205e-03  1.6173e-05  3.0197e-06  3.9532e-04  2.5516e-04  0:06:08 1796
   205  4.6203e-03  1.6030e-05  3.0051e-06  3.9328e-04  2.5306e-04  0:04:54 1795
   206  4.6212e-03  1.5889e-05  2.9872e-06  3.9121e-04  2.5101e-04  0:03:55 1794
   207  4.6178e-03  1.5753e-05  2.9708e-06  3.8910e-04  2.4899e-04  0:03:08 1793
   208  4.6114e-03  1.5623e-05  2.9575e-06  3.8694e-04  2.4698e-04  0:02:30 1792
   209  4.5887e-03  1.5478e-05  2.9457e-06  3.8496e-04  2.4500e-04  0:07:58 1791

  iter  continuity  x-velocity  y-velocity           k       omega     time/iter
   210  4.5413e-03  1.5327e-05  2.9328e-06  3.8302e-04  2.4298e-04  0:06:23 1790
   211  4.4950e-03  1.5182e-05  2.9167e-06  3.8121e-04  2.4099e-04  0:05:06 1789
   212  4.4719e-03  1.5039e-05  2.8969e-06  3.7923e-04  2.3907e-04  0:04:05 1788
   213  4.4736e-03  1.4892e-05  2.8766e-06  3.7730e-04  2.3717e-04  0:03:16 1787
   214  4.4645e-03  1.4739e-05  2.8594e-06  3.7556e-04  2.3533e-04  0:08:34 1786
   215  4.4643e-03  1.4592e-05  2.8376e-06  3.7390e-04  2.3345e-04  0:06:51 1785
   216  4.4479e-03  1.4443e-05  2.8189e-06  3.7219e-04  2.3160e-04  0:05:28 1784
   217  4.4080e-03  1.4298e-05  2.8003e-06  3.7036e-04  2.2972e-04  0:04:22 1783
   218  4.3737e-03  1.4154e-05  2.7835e-06  3.6867e-04  2.2782e-04  0:03:30 1782
   219  4.3418e-03  1.4011e-05  2.7691e-06  3.6705e-04  2.2588e-04  0:02:48 1781
   220  4.3124e-03  1.3871e-05  2.7486e-06  3.6530e-04  2.2396e-04  0:08:10 1780

  iter  continuity  x-velocity  y-velocity           k       omega     time/iter
   221  4.2821e-03  1.3735e-05  2.7272e-06  3.6343e-04  2.2209e-04  0:06:32 1779
   222  4.2415e-03  1.3601e-05  2.7112e-06  3.6145e-04  2.2029e-04  0:05:13 1778
   223  4.2028e-03  1.3479e-05  2.6953e-06  3.5949e-04  2.1850e-04  0:04:11 1777
   224  4.1654e-03  1.3357e-05  2.6790e-06  3.5758e-04  2.1667e-04  0:03:20 1776
   225  4.1299e-03  1.3232e-05  2.6618e-06  3.5574e-04  2.1486e-04  0:02:40 1775
   226  4.0999e-03  1.3107e-05  2.6462e-06  3.5389e-04  2.1319e-04  0:02:08 1774
   227  4.0562e-03  1.2980e-05  2.6283e-06  3.5201e-04  2.1157e-04  0:07:37 1773
   228  4.0088e-03  1.2855e-05  2.6125e-06  3.5013e-04  2.0987e-04  0:06:05 1772
   229  3.9754e-03  1.2738e-05  2.5916e-06  3.4842e-04  2.0809e-04  0:04:52 1771
   230  3.9220e-03  1.2612e-05  2.5735e-06  3.4672e-04  2.0650e-04  0:03:54 1770
   231  3.8662e-03  1.2496e-05  2.5526e-06  3.4507e-04  2.0493e-04  0:03:07 1769

  iter  continuity  x-velocity  y-velocity           k       omega     time/iter
   232  3.8042e-03  1.2382e-05  2.5348e-06  3.4344e-04  2.0326e-04  0:02:29 1768
   233  3.7622e-03  1.2268e-05  2.5156e-06  3.4181e-04  2.0152e-04  0:07:53 1767
   234  3.7140e-03  1.2158e-05  2.5005e-06  3.4019e-04  1.9973e-04  0:06:18 1766
   235  3.6644e-03  1.2056e-05  2.4848e-06  3.3844e-04  1.9794e-04  0:05:02 1765
   236  3.6184e-03  1.1960e-05  2.4696e-06  3.3660e-04  1.9619e-04  0:04:02 1764
   237  3.5701e-03  1.1869e-05  2.4555e-06  3.3473e-04  1.9449e-04  0:03:13 1763
   238  3.5153e-03  1.1782e-05  2.4407e-06  3.3294e-04  1.9280e-04  0:02:34 1762
   239  3.4614e-03  1.1702e-05  2.4239e-06  3.3125e-04  1.9115e-04  0:02:04 1761
   240  3.4160e-03  1.1624e-05  2.4081e-06  3.2969e-04  1.8950e-04  0:07:31 1760
   241  3.3680e-03  1.1547e-05  2.3929e-06  3.2812e-04  1.8783e-04  0:06:00 1759
   242  3.3291e-03  1.1477e-05  2.3769e-06  3.2639e-04  1.8626e-04  0:04:48 1758

  iter  continuity  x-velocity  y-velocity           k       omega     time/iter
   243  3.2908e-03  1.1409e-05  2.3640e-06  3.2481e-04  1.8471e-04  0:03:50 1757
   244  3.2506e-03  1.1343e-05  2.3508e-06  3.2340e-04  1.8320e-04  0:03:04 1756
   245  3.2244e-03  1.1284e-05  2.3362e-06  3.2202e-04  1.8173e-04  0:02:27 1755
   246  3.2027e-03  1.1227e-05  2.3247e-06  3.2054e-04  1.8023e-04  0:07:49 1754
   247  3.1867e-03  1.1172e-05  2.3118e-06  3.1899e-04  1.7875e-04  0:06:15 1753
   248  3.1552e-03  1.1118e-05  2.2979e-06  3.1771e-04  1.7722e-04  0:05:00 1752
   249  3.1205e-03  1.1066e-05  2.2843e-06  3.1648e-04  1.7569e-04  0:03:59 1751
   250  3.0845e-03  1.1019e-05  2.2715e-06  3.1508e-04  1.7420e-04  0:03:11 1750
   251  3.0512e-03  1.0969e-05  2.2572e-06  3.1369e-04  1.7273e-04  0:02:33 1749
   252  3.0144e-03  1.0917e-05  2.2401e-06  3.1220e-04  1.7135e-04  0:02:02 1748
   253  2.9904e-03  1.0864e-05  2.2231e-06  3.1071e-04  1.7001e-04  0:07:27 1747

  iter  continuity  x-velocity  y-velocity           k       omega     time/iter
   254  2.9468e-03  1.0805e-05  2.2086e-06  3.0927e-04  1.6861e-04  0:05:58 1746
   255  2.9154e-03  1.0751e-05  2.1942e-06  3.0786e-04  1.6721e-04  0:04:46 1745
   256  2.8891e-03  1.0696e-05  2.1778e-06  3.0644e-04  1.6596e-04  0:03:49 1744
   257  2.8564e-03  1.0640e-05  2.1610e-06  3.0501e-04  1.6481e-04  0:03:03 1743
   258  2.8371e-03  1.0586e-05  2.1441e-06  3.0362e-04  1.6361e-04  0:02:26 1742
   259  2.8185e-03  1.0535e-05  2.1294e-06  3.0229e-04  1.6231e-04  0:07:45 1741
   260  2.8011e-03  1.0484e-05  2.1161e-06  3.0095e-04  1.6114e-04  0:06:12 1740
   261  2.7891e-03  1.0433e-05  2.1025e-06  2.9968e-04  1.6005e-04  0:04:57 1739
   262  2.7771e-03  1.0383e-05  2.0901e-06  2.9844e-04  1.5885e-04  0:03:58 1738
   263  2.7692e-03  1.0332e-05  2.0803e-06  2.9722e-04  1.5755e-04  0:03:10 1737
   264  2.7675e-03  1.0283e-05  2.0682e-06  2.9596e-04  1.5622e-04  0:08:19 1736

  iter  continuity  x-velocity  y-velocity           k       omega     time/iter
   265  2.7490e-03  1.0235e-05  2.0551e-06  2.9460e-04  1.5491e-04  0:06:39 1735
   266  2.7348e-03  1.0186e-05  2.0420e-06  2.9319e-04  1.5366e-04  0:05:19 1734
   267  2.7146e-03  1.0140e-05  2.0283e-06  2.9173e-04  1.5244e-04  0:04:15 1733
   268  2.6981e-03  1.0091e-05  2.0109e-06  2.9031e-04  1.5128e-04  0:03:24 1732
   269  2.6863e-03  1.0041e-05  1.9964e-06  2.8896e-04  1.5016e-04  0:02:43 1731
   270  2.6721e-03  9.9868e-06  1.9798e-06  2.8773e-04  1.4907e-04  0:07:56 1730
   271  2.6548e-03  9.9301e-06  1.9646e-06  2.8643e-04  1.4792e-04  0:06:21 1729
   272  2.6310e-03  9.8796e-06  1.9514e-06  2.8510e-04  1.4688e-04  0:05:05 1728
   273  2.6139e-03  9.8297e-06  1.9407e-06  2.8387e-04  1.4587e-04  0:04:03 1727
   274  2.5989e-03  9.7771e-06  1.9285e-06  2.8287e-04  1.4492e-04  0:03:15 1726
   275  2.5946e-03  9.7276e-06  1.9190e-06  2.8191e-04  1.4401e-04  0:02:36 1725

  iter  continuity  x-velocity  y-velocity           k       omega     time/iter
   276  2.5837e-03  9.6736e-06  1.9074e-06  2.8084e-04  1.4308e-04  0:07:49 1724
   277  2.5779e-03  9.6211e-06  1.8981e-06  2.7967e-04  1.4220e-04  0:06:15 1723
   278  2.5702e-03  9.5674e-06  1.8898e-06  2.7881e-04  1.4130e-04  0:05:00 1722
   279  2.5592e-03  9.5103e-06  1.8828e-06  2.7794e-04  1.4042e-04  0:04:00 1721
   280  2.5473e-03  9.4527e-06  1.8758e-06  2.7687e-04  1.3955e-04  0:03:12 1720
   281  2.5429e-03  9.3953e-06  1.8669e-06  2.7580e-04  1.3872e-04  0:02:33 1719
   282  2.5326e-03  9.3370e-06  1.8577e-06  2.7465e-04  1.3796e-04  0:02:03 1718
   283  2.5214e-03  9.2775e-06  1.8478e-06  2.7349e-04  1.3727e-04  0:07:21 1717
   284  2.5141e-03  9.2195e-06  1.8391e-06  2.7235e-04  1.3657e-04  0:05:53 1716
   285  2.5058e-03  9.1607e-06  1.8307e-06  2.7125e-04  1.3582e-04  0:04:42 1715
   286  2.4830e-03  9.0983e-06  1.8238e-06  2.7016e-04  1.3518e-04  0:03:46 1714

  iter  continuity  x-velocity  y-velocity           k       omega     time/iter
   287  2.4642e-03  9.0400e-06  1.8157e-06  2.6899e-04  1.3469e-04  0:03:00 1713
   288  2.4403e-03  8.9828e-06  1.8083e-06  2.6779e-04  1.3421e-04  0:02:24 1712
   289  2.4134e-03  8.9187e-06  1.8022e-06  2.6669e-04  1.3362e-04  0:07:38 1711
   290  2.3884e-03  8.8522e-06  1.7944e-06  2.6561e-04  1.3306e-04  0:06:06 1710
   291  2.3597e-03  8.7905e-06  1.7889e-06  2.6457e-04  1.3269e-04  0:04:52 1709
   292  2.3370e-03  8.7273e-06  1.7825e-06  2.6357e-04  1.3222e-04  0:03:54 1708
   293  2.3228e-03  8.6670e-06  1.7767e-06  2.6263e-04  1.3162e-04  0:03:07 1707
   294  2.3015e-03  8.6088e-06  1.7702e-06  2.6160e-04  1.3101e-04  0:02:29 1706
   295  2.2885e-03  8.5525e-06  1.7626e-06  2.6051e-04  1.3043e-04  0:02:00 1705
   296  2.2726e-03  8.4947e-06  1.7552e-06  2.5934e-04  1.2986e-04  0:07:16 1704
   297  2.2502e-03  8.4389e-06  1.7484e-06  2.5806e-04  1.2935e-04  0:05:49 1703

  iter  continuity  x-velocity  y-velocity           k       omega     time/iter
   298  2.2253e-03  8.3837e-06  1.7402e-06  2.5685e-04  1.2888e-04  0:04:39 1702
   299  2.2046e-03  8.3275e-06  1.7351e-06  2.5573e-04  1.2844e-04  0:03:43 1701
   300  2.1742e-03  8.2716e-06  1.7291e-06  2.5476e-04  1.2805e-04  0:02:58 1700
   301  2.1461e-03  8.2155e-06  1.7199e-06  2.5371e-04  1.2759e-04  0:02:23 1699
   302  2.1210e-03  8.1584e-06  1.7132e-06  2.5254e-04  1.2723e-04  0:07:34 1698
   303  2.1042e-03  8.1043e-06  1.7091e-06  2.5144e-04  1.2690e-04  0:06:03 1697
   304  2.0835e-03  8.0551e-06  1.7021e-06  2.5056e-04  1.2662e-04  0:04:50 1696
   305  2.0649e-03  8.0053e-06  1.6971e-06  2.4968e-04  1.2638e-04  0:03:52 1695
   306  2.0464e-03  7.9565e-06  1.6921e-06  2.4869e-04  1.2613e-04  0:03:05 1694
   307  2.0204e-03  7.9105e-06  1.6868e-06  2.4760e-04  1.2590e-04  0:08:07 1693
   308  2.0015e-03  7.8663e-06  1.6813e-06  2.4681e-04  1.2566e-04  0:06:29 1692

  iter  continuity  x-velocity  y-velocity           k       omega     time/iter
   309  1.9797e-03  7.8206e-06  1.6762e-06  2.4595e-04  1.2541e-04  0:05:11 1691
   310  1.9572e-03  7.7793e-06  1.6727e-06  2.4489e-04  1.2515e-04  0:04:09 1690
   311  1.9376e-03  7.7383e-06  1.6673e-06  2.4377e-04  1.2493e-04  0:03:19 1689
   312  1.9194e-03  7.6975e-06  1.6640e-06  2.4261e-04  1.2476e-04  0:02:39 1688
   313  1.9004e-03  7.6559e-06  1.6608e-06  2.4145e-04  1.2467e-04  0:07:45 1687
   314  1.8846e-03  7.6172e-06  1.6570e-06  2.4032e-04  1.2457e-04  0:06:11 1686
   315  1.8656e-03  7.5773e-06  1.6536e-06  2.3923e-04  1.2441e-04  0:04:57 1685
   316  1.8417e-03  7.5401e-06  1.6496e-06  2.3819e-04  1.2430e-04  0:03:57 1684
   317  1.8246e-03  7.5038e-06  1.6454e-06  2.3705e-04  1.2437e-04  0:03:10 1683
   318  1.8022e-03  7.4692e-06  1.6415e-06  2.3594e-04  1.2446e-04  0:02:32 1682
   319  1.7868e-03  7.4363e-06  1.6379e-06  2.3495e-04  1.2447e-04  0:07:38 1681

  iter  continuity  x-velocity  y-velocity           k       omega     time/iter
   320  1.7684e-03  7.4024e-06  1.6350e-06  2.3399e-04  1.2438e-04  0:06:06 1680
   321  1.7451e-03  7.3660e-06  1.6303e-06  2.3308e-04  1.2457e-04  0:04:52 1679
   322  1.7231e-03  7.3275e-06  1.6260e-06  2.3225e-04  1.2466e-04  0:03:54 1678
   323  1.7042e-03  7.2943e-06  1.6221e-06  2.3151e-04  1.2458e-04  0:03:07 1677
   324  1.6853e-03  7.2584e-06  1.6177e-06  2.3073e-04  1.2445e-04  0:02:29 1676
   325  1.6692e-03  7.2267e-06  1.6144e-06  2.2988e-04  1.2434e-04  0:02:00 1675
   326  1.6523e-03  7.1955e-06  1.6092e-06  2.2906e-04  1.2423e-04  0:07:10 1674
   327  1.6361e-03  7.1638e-06  1.6043e-06  2.2819e-04  1.2417e-04  0:05:44 1673
   328  1.6182e-03  7.1316e-06  1.6005e-06  2.2734e-04  1.2414e-04  0:04:35 1672
   329  1.6025e-03  7.1018e-06  1.5971e-06  2.2658e-04  1.2413e-04  0:03:40 1671
   330  1.5847e-03  7.0738e-06  1.5925e-06  2.2591e-04  1.2416e-04  0:02:56 1670

  iter  continuity  x-velocity  y-velocity           k       omega     time/iter
   331  1.5697e-03  7.0447e-06  1.5879e-06  2.2525e-04  1.2414e-04  0:02:21 1669
   332  1.5480e-03  7.0137e-06  1.5838e-06  2.2449e-04  1.2415e-04  0:07:26 1668
   333  1.5304e-03  6.9851e-06  1.5800e-06  2.2379e-04  1.2421e-04  0:05:57 1667
   334  1.5150e-03  6.9555e-06  1.5764e-06  2.2336e-04  1.2429e-04  0:04:45 1666
   335  1.5030e-03  6.9267e-06  1.5734e-06  2.2293e-04  1.2441e-04  0:03:48 1665
   336  1.4916e-03  6.8975e-06  1.5692e-06  2.2244e-04  1.2452e-04  0:03:02 1664
   337  1.4755e-03  6.8672e-06  1.5658e-06  2.2187e-04  1.2457e-04  0:02:26 1663
   338  1.4628e-03  6.8381e-06  1.5619e-06  2.2163e-04  1.2464e-04  0:01:56 1662
   339  1.4532e-03  6.8079e-06  1.5580e-06  2.2137e-04  1.2466e-04  0:07:05 1661
   340  1.4423e-03  6.7777e-06  1.5551e-06  2.2093e-04  1.2466e-04  0:05:40 1660
   341  1.4320e-03  6.7476e-06  1.5513e-06  2.2039e-04  1.2466e-04  0:04:32 1659

  iter  continuity  x-velocity  y-velocity           k       omega     time/iter
   342  1.4219e-03  6.7174e-06  1.5471e-06  2.1982e-04  1.2467e-04  0:03:37 1658
   343  1.4125e-03  6.6865e-06  1.5441e-06  2.1923e-04  1.2473e-04  0:02:54 1657
   344  1.4093e-03  6.6552e-06  1.5414e-06  2.1867e-04  1.2478e-04  0:02:19 1656
   345  1.3997e-03  6.6243e-06  1.5379e-06  2.1816e-04  1.2474e-04  0:07:22 1655
   346  1.3948e-03  6.5941e-06  1.5355e-06  2.1768e-04  1.2469e-04  0:05:53 1654
   347  1.3828e-03  6.5631e-06  1.5313e-06  2.1716e-04  1.2478e-04  0:04:43 1653
   348  1.3751e-03  6.5326e-06  1.5271e-06  2.1658e-04  1.2491e-04  0:03:46 1652
   349  1.3618e-03  6.5016e-06  1.5230e-06  2.1611e-04  1.2495e-04  0:03:01 1651
   350  1.3537e-03  6.4701e-06  1.5196e-06  2.1564e-04  1.2484e-04  0:02:24 1650
   351  1.3421e-03  6.4404e-06  1.5142e-06  2.1518e-04  1.2492e-04  0:01:55 1649
   352  1.3262e-03  6.4093e-06  1.5088e-06  2.1476e-04  1.2497e-04  0:07:02 1648

  iter  continuity  x-velocity  y-velocity           k       omega     time/iter
   353  1.3186e-03  6.3798e-06  1.5047e-06  2.1438e-04  1.2483e-04  0:05:37 1647
   354  1.3104e-03  6.3516e-06  1.4991e-06  2.1391e-04  1.2458e-04  0:04:30 1646
   355  1.3011e-03  6.3204e-06  1.4954e-06  2.1333e-04  1.2430e-04  0:03:36 1645
   356  1.2935e-03  6.2904e-06  1.4907e-06  2.1268e-04  1.2401e-04  0:08:21 1644
   357  1.2837e-03  6.2581e-06  1.4873e-06  2.1198e-04  1.2375e-04  0:06:41 1643
   358  1.2750e-03  6.2238e-06  1.4840e-06  2.1127e-04  1.2350e-04  0:05:20 1642
   359  1.2677e-03  6.1905e-06  1.4796e-06  2.1065e-04  1.2325e-04  0:04:16 1641
   360  1.2584e-03  6.1588e-06  1.4744e-06  2.1009e-04  1.2301e-04  0:03:25 1640
   361  1.2540e-03  6.1261e-06  1.4704e-06  2.0949e-04  1.2275e-04  0:02:44 1639
   362  1.2481e-03  6.0935e-06  1.4649e-06  2.0874e-04  1.2245e-04  0:02:11 1638
   363  1.2450e-03  6.0585e-06  1.4594e-06  2.0801e-04  1.2222e-04  0:07:12 1637

  iter  continuity  x-velocity  y-velocity           k       omega     time/iter
   364  1.2391e-03  6.0232e-06  1.4544e-06  2.0756e-04  1.2198e-04  0:05:45 1636
   365  1.2349e-03  5.9894e-06  1.4488e-06  2.0707e-04  1.2177e-04  0:04:36 1635
   366  1.2242e-03  5.9556e-06  1.4427e-06  2.0643e-04  1.2156e-04  0:03:41 1634
   367  1.2155e-03  5.9217e-06  1.4358e-06  2.0576e-04  1.2128e-04  0:02:57 1633
   368  1.2105e-03  5.8872e-06  1.4287e-06  2.0530e-04  1.2101e-04  0:02:21 1632
   369  1.2015e-03  5.8521e-06  1.4211e-06  2.0480e-04  1.2069e-04  0:07:19 1631
   370  1.1916e-03  5.8175e-06  1.4147e-06  2.0410e-04  1.2035e-04  0:05:51 1630
   371  1.1868e-03  5.7823e-06  1.4089e-06  2.0323e-04  1.2002e-04  0:04:41 1629
   372  1.1847e-03  5.7464e-06  1.4031e-06  2.0230e-04  1.1967e-04  0:03:44 1628
   373  1.1808e-03  5.7103e-06  1.3970e-06  2.0136e-04  1.1938e-04  0:02:59 1627
   374  1.1815e-03  5.6742e-06  1.3897e-06  2.0041e-04  1.1910e-04  0:02:23 1626

  iter  continuity  x-velocity  y-velocity           k       omega     time/iter
   375  1.1766e-03  5.6367e-06  1.3831e-06  1.9950e-04  1.1875e-04  0:01:55 1625
   376  1.1670e-03  5.5988e-06  1.3764e-06  1.9862e-04  1.1835e-04  0:06:56 1624
   377  1.1596e-03  5.5648e-06  1.3673e-06  1.9770e-04  1.1809e-04  0:05:33 1623
   378  1.1562e-03  5.5310e-06  1.3589e-06  1.9666e-04  1.1793e-04  0:04:26 1622
   379  1.1463e-03  5.4949e-06  1.3507e-06  1.9572e-04  1.1770e-04  0:03:33 1621
   380  1.1427e-03  5.4591e-06  1.3429e-06  1.9479e-04  1.1733e-04  0:02:50 1620
   381  1.1435e-03  5.4240e-06  1.3337e-06  1.9389e-04  1.1706e-04  0:02:16 1619
   382  1.1392e-03  5.3907e-06  1.3245e-06  1.9300e-04  1.1689e-04  0:07:12 1618
   383  1.1335e-03  5.3593e-06  1.3147e-06  1.9221e-04  1.1656e-04  0:05:46 1617
   384  1.1257e-03  5.3265e-06  1.3054e-06  1.9130e-04  1.1607e-04  0:04:36 1616
   385  1.1214e-03  5.2924e-06  1.2962e-06  1.9034e-04  1.1551e-04  0:03:41 1615

  iter  continuity  x-velocity  y-velocity           k       omega     time/iter
   386  1.1098e-03  5.2542e-06  1.2854e-06  1.8929e-04  1.1500e-04  0:02:57 1614
   387  1.1007e-03  5.2195e-06  1.2741e-06  1.8818e-04  1.1451e-04  0:02:21 1613
   388  1.0917e-03  5.1823e-06  1.2645e-06  1.8703e-04  1.1405e-04  0:01:53 1612
   389  1.0869e-03  5.1472e-06  1.2536e-06  1.8592e-04  1.1360e-04  0:06:52 1611
   390  1.0829e-03  5.1129e-06  1.2429e-06  1.8492e-04  1.1318e-04  0:05:30 1610
   391  1.0783e-03  5.0789e-06  1.2338e-06  1.8394e-04  1.1277e-04  0:04:24 1609
   392  1.0752e-03  5.0427e-06  1.2232e-06  1.8277e-04  1.1227e-04  0:03:31 1608
   393  1.0642e-03  5.0064e-06  1.2127e-06  1.8155e-04  1.1188e-04  0:02:49 1607
   394  1.0554e-03  4.9720e-06  1.2020e-06  1.8066e-04  1.1149e-04  0:02:15 1606
   395  1.0464e-03  4.9377e-06  1.1906e-06  1.7981e-04  1.1113e-04  0:07:09 1605
   396  1.0362e-03  4.9034e-06  1.1792e-06  1.7887e-04  1.1080e-04  0:05:43 1604

  iter  continuity  x-velocity  y-velocity           k       omega     time/iter
   397  1.0256e-03  4.8708e-06  1.1701e-06  1.7775e-04  1.1041e-04  0:04:34 1603
   398  1.0159e-03  4.8415e-06  1.1578e-06  1.7692e-04  1.1004e-04  0:03:39 1602
   399  1.0064e-03  4.8126e-06  1.1477e-06  1.7607e-04  1.0964e-04  0:02:55 1601
   400  9.9742e-04  4.7849e-06  1.1362e-06  1.7488e-04  1.0921e-04  0:07:40 1600
   401  9.9214e-04  4.7599e-06  1.1262e-06  1.7353e-04  1.0878e-04  0:06:08 1599
   402  9.8650e-04  4.7352e-06  1.1150e-06  1.7217e-04  1.0834e-04  0:04:54 1598
   403  9.8377e-04  4.7107e-06  1.1042e-06  1.7087e-04  1.0797e-04  0:03:55 1597
   404  9.7609e-04  4.6854e-06  1.0940e-06  1.6952e-04  1.0761e-04  0:03:08 1596
   405  9.6974e-04  4.6618e-06  1.0841e-06  1.6825e-04  1.0723e-04  0:02:30 1595
   406  9.6373e-04  4.6384e-06  1.0737e-06  1.6693e-04  1.0673e-04  0:07:19 1594
   407  9.5532e-04  4.6156e-06  1.0626e-06  1.6556e-04  1.0634e-04  0:05:51 1593

  iter  continuity  x-velocity  y-velocity           k       omega     time/iter
   408  9.4760e-04  4.5930e-06  1.0517e-06  1.6415e-04  1.0610e-04  0:04:41 1592
   409  9.4435e-04  4.5710e-06  1.0422e-06  1.6280e-04  1.0582e-04  0:03:44 1591
   410  9.4027e-04  4.5502e-06  1.0331e-06  1.6147e-04  1.0541e-04  0:02:59 1590
   411  9.3403e-04  4.5293e-06  1.0242e-06  1.6019e-04  1.0500e-04  0:02:23 1589
   412  9.2877e-04  4.5096e-06  1.0157e-06  1.5890e-04  1.0477e-04  0:01:55 1588
   413  9.2163e-04  4.4907e-06  1.0073e-06  1.5775e-04  1.0441e-04  0:06:49 1587
   414  9.1964e-04  4.4726e-06  9.9936e-07  1.5650e-04  1.0384e-04  0:05:27 1586
   415  9.1755e-04  4.4541e-06  9.9214e-07  1.5516e-04  1.0325e-04  0:04:21 1585
   416  9.1279e-04  4.4359e-06  9.8548e-07  1.5382e-04  1.0268e-04  0:03:29 1584
   417  9.0706e-04  4.4183e-06  9.7801e-07  1.5236e-04  1.0211e-04  0:02:47 1583
   418  9.0102e-04  4.4007e-06  9.7119e-07  1.5080e-04  1.0153e-04  0:02:14 1582

  iter  continuity  x-velocity  y-velocity           k       omega     time/iter
   419  8.9346e-04  4.3832e-06  9.6441e-07  1.4930e-04  1.0102e-04  0:07:03 1581
   420  8.8739e-04  4.3650e-06  9.5890e-07  1.4800e-04  1.0046e-04  0:05:38 1580
   421  8.7664e-04  4.3477e-06  9.5285e-07  1.4674e-04  9.9951e-05  0:04:30 1579
   422  8.7295e-04  4.3314e-06  9.4777e-07  1.4531e-04  9.9345e-05  0:03:36 1578
   423  8.6731e-04  4.3157e-06  9.4317e-07  1.4385e-04  9.8824e-05  0:02:53 1577
   424  8.5920e-04  4.3005e-06  9.3797e-07  1.4265e-04  9.8282e-05  0:02:18 1576
   425  8.4950e-04  4.2850e-06  9.3420e-07  1.4153e-04  9.7799e-05  0:01:50 1575
   426  8.4644e-04  4.2691e-06  9.3184e-07  1.4038e-04  9.7336e-05  0:06:43 1574
   427  8.3805e-04  4.2544e-06  9.2955e-07  1.3902e-04  9.6856e-05  0:05:22 1573
   428  8.3107e-04  4.2399e-06  9.2796e-07  1.3788e-04  9.6358e-05  0:04:18 1572
   429  8.2767e-04  4.2272e-06  9.2563e-07  1.3686e-04  9.5847e-05  0:03:26 1571

  iter  continuity  x-velocity  y-velocity           k       omega     time/iter
   430  8.1826e-04  4.2144e-06  9.2462e-07  1.3560e-04  9.5288e-05  0:02:45 1570
   431  8.1242e-04  4.2029e-06  9.2388e-07  1.3422e-04  9.4726e-05  0:02:12 1569
   432  8.0766e-04  4.1910e-06  9.2298e-07  1.3269e-04  9.4128e-05  0:06:59 1568
   433  8.0458e-04  4.1789e-06  9.2246e-07  1.3125e-04  9.3570e-05  0:05:35 1567
   434  7.9920e-04  4.1667e-06  9.2214e-07  1.2987e-04  9.3055e-05  0:04:28 1566
   435  7.9667e-04  4.1531e-06  9.2309e-07  1.2853e-04  9.2535e-05  0:03:34 1565
   436  7.9016e-04  4.1411e-06  9.2359e-07  1.2724e-04  9.1921e-05  0:02:51 1564
   437  7.8921e-04  4.1294e-06  9.2435e-07  1.2589e-04  9.1339e-05  0:02:17 1563
   438  7.8692e-04  4.1170e-06  9.2451e-07  1.2445e-04  9.0919e-05  0:01:49 1562
   439  7.8488e-04  4.1058e-06  9.2470e-07  1.2318e-04  9.0498e-05  0:06:40 1561
   440  7.7929e-04  4.0945e-06  9.2526e-07  1.2190e-04  8.9994e-05  0:05:20 1560

  iter  continuity  x-velocity  y-velocity           k       omega     time/iter
   441  7.7858e-04  4.0836e-06  9.2580e-07  1.2069e-04  8.9360e-05  0:04:15 1559
   442  7.7294e-04  4.0728e-06  9.2559e-07  1.1947e-04  8.9002e-05  0:03:24 1558
   443  7.6869e-04  4.0619e-06  9.2656e-07  1.1845e-04  8.8517e-05  0:02:43 1557
   444  7.6539e-04  4.0519e-06  9.2697e-07  1.1731e-04  8.7844e-05  0:07:22 1556
   445  7.6185e-04  4.0409e-06  9.2779e-07  1.1611e-04  8.7096e-05  0:05:53 1555
   446  7.5868e-04  4.0283e-06  9.2827e-07  1.1486e-04  8.6363e-05  0:04:42 1554
   447  7.5390e-04  4.0162e-06  9.2853e-07  1.1352e-04  8.5644e-05  0:03:46 1553
   448  7.5242e-04  4.0059e-06  9.2908e-07  1.1213e-04  8.4973e-05  0:03:00 1552
   449  7.4616e-04  3.9964e-06  9.2979e-07  1.1077e-04  8.4326e-05  0:02:24 1551
   450  7.4457e-04  3.9865e-06  9.2966e-07  1.0960e-04  8.3664e-05  0:07:05 1550
   451  7.4425e-04  3.9759e-06  9.3004e-07  1.0850e-04  8.3042e-05  0:05:40 1549

  iter  continuity  x-velocity  y-velocity           k       omega     time/iter
   452  7.4019e-04  3.9653e-06  9.3087e-07  1.0724e-04  8.2319e-05  0:04:32 1548
   453  7.3830e-04  3.9555e-06  9.3099e-07  1.0595e-04  8.1627e-05  0:03:37 1547
   454  7.3743e-04  3.9464e-06  9.3144e-07  1.0492e-04  8.1013e-05  0:02:54 1546
   455  7.3694e-04  3.9364e-06  9.3270e-07  1.0396e-04  8.0417e-05  0:02:19 1545
   456  7.3459e-04  3.9265e-06  9.3314e-07  1.0294e-04  7.9840e-05  0:07:00 1544
   457  7.3551e-04  3.9198e-06  9.3310e-07  1.0179e-04  7.9287e-05  0:05:36 1543
   458  7.3772e-04  3.9110e-06  9.3329e-07  1.0077e-04  7.8663e-05  0:04:28 1542
   459  7.3798e-04  3.9019e-06  9.3284e-07  9.9950e-05  7.8060e-05  0:03:35 1541
   460  7.3850e-04  3.8915e-06  9.3205e-07  9.8942e-05  7.7422e-05  0:02:52 1540
   461  7.3928e-04  3.8833e-06  9.3155e-07  9.7740e-05  7.6770e-05  0:02:17 1539
   462  7.3802e-04  3.8743e-06  9.3070e-07  9.6444e-05  7.6116e-05  0:01:50 1538

  iter  continuity  x-velocity  y-velocity           k       omega     time/iter
   463  7.3504e-04  3.8662e-06  9.2980e-07  9.5204e-05  7.5524e-05  0:06:35 1537
   464  7.3422e-04  3.8574e-06  9.2948e-07  9.3922e-05  7.4975e-05  0:05:16 1536
   465  7.3052e-04  3.8481e-06  9.2832e-07  9.2717e-05  7.4441e-05  0:04:13 1535
   466  7.2651e-04  3.8371e-06  9.2723e-07  9.1544e-05  7.3831e-05  0:03:22 1534
   467  7.2078e-04  3.8271e-06  9.2535e-07  9.0465e-05  7.3228e-05  0:02:41 1533
   468  7.1999e-04  3.8183e-06  9.2247e-07  8.9248e-05  7.2788e-05  0:02:09 1532
   469  7.1200e-04  3.8087e-06  9.2069e-07  8.8239e-05  7.2421e-05  0:06:49 1531
   470  7.0924e-04  3.7992e-06  9.1804e-07  8.7311e-05  7.1953e-05  0:05:27 1530
   471  7.0903e-04  3.7904e-06  9.1530e-07  8.6418e-05  7.1360e-05  0:04:22 1529
   472  7.0853e-04  3.7810e-06  9.1264e-07  8.5587e-05  7.0986e-05  0:03:29 1528
   473  7.0329e-04  3.7740e-06  9.0903e-07  8.4920e-05  7.0609e-05  0:02:47 1527

  iter  continuity  x-velocity  y-velocity           k       omega     time/iter
   474  7.0478e-04  3.7672e-06  9.0588e-07  8.4218e-05  7.0052e-05  0:02:14 1526
   475  7.0414e-04  3.7602e-06  9.0219e-07  8.3544e-05  6.9371e-05  0:01:47 1525
   476  7.0613e-04  3.7518e-06  8.9981e-07  8.2808e-05  6.8675e-05  0:06:30 1524
   477  7.0549e-04  3.7455e-06  8.9584e-07  8.2032e-05  6.8015e-05  0:05:12 1523
   478  7.0823e-04  3.7377e-06  8.9255e-07  8.1177e-05  6.7404e-05  0:04:09 1522
   479  7.0836e-04  3.7302e-06  8.8786e-07  8.0367e-05  6.6817e-05  0:03:19 1521
   480  7.0827e-04  3.7218e-06  8.8379e-07  7.9730e-05  6.6243e-05  0:02:39 1520
   481  7.1072e-04  3.7139e-06  8.8026e-07  7.9209e-05  6.5716e-05  0:02:07 1519
   482  7.0983e-04  3.7065e-06  8.7535e-07  7.8593e-05  6.5178e-05  0:06:46 1518
   483  7.1296e-04  3.6988e-06  8.6966e-07  7.7912e-05  6.4630e-05  0:05:24 1517
   484  7.1048e-04  3.6898e-06  8.6452e-07  7.7455e-05  6.4131e-05  0:04:19 1516

  iter  continuity  x-velocity  y-velocity           k       omega     time/iter
   485  7.1603e-04  3.6818e-06  8.5977e-07  7.7177e-05  6.3679e-05  0:03:27 1515
   486  7.2028e-04  3.6747e-06  8.5487e-07  7.6889e-05  6.3249e-05  0:02:46 1514
   487  7.2430e-04  3.6673e-06  8.5026e-07  7.6503e-05  6.2839e-05  0:02:12 1513
   488  7.2568e-04  3.6598e-06  8.4480e-07  7.6111e-05  6.2377e-05  0:01:46 1512
   489  7.3026e-04  3.6547e-06  8.3868e-07  7.6071e-05  6.1933e-05  0:06:27 1511
   490  7.2928e-04  3.6479e-06  8.3389e-07  7.5891e-05  6.1459e-05  0:05:09 1510
   491  7.2967e-04  3.6419e-06  8.2779e-07  7.5493e-05  6.0963e-05  0:04:07 1509
   492  7.3065e-04  3.6358e-06  8.2128e-07  7.4991e-05  6.0449e-05  0:03:18 1508
   493  7.3185e-04  3.6310e-06  8.1503e-07  7.4530e-05  5.9969e-05  0:07:39 1507
   494  7.3818e-04  3.6257e-06  8.0952e-07  7.4063e-05  5.9576e-05  0:06:07 1506
   495  7.3932e-04  3.6194e-06  8.0378e-07  7.3719e-05  5.9201e-05  0:04:54 1505

  iter  continuity  x-velocity  y-velocity           k       omega     time/iter
   496  7.4717e-04  3.6141e-06  7.9732e-07  7.3433e-05  5.8771e-05  0:03:55 1504
   497  7.5074e-04  3.6087e-06  7.9068e-07  7.3205e-05  5.8312e-05  0:03:08 1503
   498  7.5043e-04  3.6025e-06  7.8456e-07  7.2780e-05  5.7988e-05  0:02:30 1502
   499  7.5468e-04  3.5965e-06  7.7740e-07  7.2546e-05  5.7796e-05  0:02:00 1501
   500  7.5645e-04  3.5893e-06  7.7105e-07  7.2375e-05  5.7511e-05  0:06:36 1500
   501  7.5823e-04  3.5813e-06  7.6414e-07  7.2239e-05  5.7141e-05  0:05:17 1499
   502  7.5995e-04  3.5723e-06  7.5664e-07  7.2057e-05  5.6819e-05  0:04:13 1498
   503  7.6341e-04  3.5633e-06  7.5084e-07  7.2011e-05  5.6667e-05  0:03:22 1497
   504  7.6374e-04  3.5551e-06  7.4360e-07  7.1979e-05  5.6305e-05  0:02:42 1496
   505  7.6311e-04  3.5462e-06  7.3695e-07  7.1877e-05  5.5821e-05  0:02:09 1495
   506  7.6466e-04  3.5371e-06  7.3084e-07  7.1755e-05  5.5253e-05  0:06:42 1494

  iter  continuity  x-velocity  y-velocity           k       omega     time/iter
   507  7.6478e-04  3.5271e-06  7.2326e-07  7.1640e-05  5.4755e-05  0:05:22 1493
   508  7.6410e-04  3.5174e-06  7.1617e-07  7.1446e-05  5.4237e-05  0:04:17 1492
   509  7.6796e-04  3.5077e-06  7.0941e-07  7.1265e-05  5.3798e-05  0:03:25 1491
   510  7.6789e-04  3.4976e-06  7.0313e-07  7.1164e-05  5.3375e-05  0:02:44 1490
   511  7.7643e-04  3.4886e-06  6.9550e-07  7.1112e-05  5.2991e-05  0:02:11 1489
   512  7.7572e-04  3.4761e-06  6.8919e-07  7.1000e-05  5.2629e-05  0:01:45 1488
   513  7.7505e-04  3.4635e-06  6.8285e-07  7.0747e-05  5.2152e-05  0:06:21 1487
   514  7.7591e-04  3.4525e-06  6.7592e-07  7.0668e-05  5.1806e-05  0:05:05 1486
   515  7.7590e-04  3.4420e-06  6.6742e-07  7.0702e-05  5.1458e-05  0:04:04 1485
   516  7.7732e-04  3.4319e-06  6.6043e-07  7.0730e-05  5.1166e-05  0:03:15 1484
   517  7.7749e-04  3.4216e-06  6.5417e-07  7.0714e-05  5.0922e-05  0:02:36 1483

  iter  continuity  x-velocity  y-velocity           k       omega     time/iter
   518  7.7748e-04  3.4101e-06  6.4789e-07  7.0546e-05  5.0591e-05  0:02:05 1482
   519  7.7818e-04  3.3992e-06  6.4254e-07  7.0783e-05  5.0298e-05  0:06:36 1481
   520  7.8025e-04  3.3888e-06  6.3636e-07  7.0880e-05  4.9987e-05  0:05:16 1480
   521  7.8289e-04  3.3790e-06  6.3004e-07  7.0664e-05  4.9655e-05  0:04:13 1479
   522  7.8192e-04  3.3680e-06  6.2482e-07  7.0345e-05  4.9320e-05  0:03:22 1478
   523  7.8653e-04  3.3573e-06  6.1944e-07  7.0030e-05  4.8969e-05  0:02:42 1477
   524  7.8609e-04  3.3476e-06  6.1444e-07  6.9698e-05  4.8680e-05  0:02:09 1476
   525  7.9090e-04  3.3369e-06  6.0993e-07  6.9405e-05  4.8443e-05  0:01:43 1475
   526  7.9456e-04  3.3277e-06  6.0488e-07  6.9176e-05  4.8154e-05  0:06:17 1474
   527  8.0058e-04  3.3202e-06  6.0083e-07  6.8989e-05  4.7792e-05  0:05:02 1473
   528  8.0202e-04  3.3111e-06  5.9579e-07  6.8716e-05  4.7527e-05  0:04:01 1472

  iter  continuity  x-velocity  y-velocity           k       omega     time/iter
   529  8.0489e-04  3.3032e-06  5.9200e-07  6.8363e-05  4.7439e-05  0:03:13 1471
   530  8.0305e-04  3.2923e-06  5.8801e-07  6.8075e-05  4.7311e-05  0:02:34 1470
   531  8.0287e-04  3.2830e-06  5.8474e-07  6.7914e-05  4.7079e-05  0:02:03 1469
   532  8.0395e-04  3.2739e-06  5.8102e-07  6.7814e-05  4.6800e-05  0:06:32 1468
   533  8.0570e-04  3.2643e-06  5.7746e-07  6.7649e-05  4.6774e-05  0:05:13 1467
   534  8.0843e-04  3.2553e-06  5.7302e-07  6.7539e-05  4.6604e-05  0:04:11 1466
   535  8.0910e-04  3.2452e-06  5.6964e-07  6.7369e-05  4.6249e-05  0:03:20 1465
   536  8.1530e-04  3.2353e-06  5.6712e-07  6.7123e-05  4.5831e-05  0:02:40 1464
   537  8.1304e-04  3.2250e-06  5.6352e-07  6.6789e-05  4.5467e-05  0:07:01 1463
   538  8.1541e-04  3.2163e-06  5.5945e-07  6.6463e-05  4.5094e-05  0:05:36 1462
   539  8.1660e-04  3.2087e-06  5.5582e-07  6.6130e-05  4.4771e-05  0:04:29 1461

  iter  continuity  x-velocity  y-velocity           k       omega     time/iter
   540  8.1613e-04  3.2003e-06  5.5238e-07  6.5822e-05  4.4464e-05  0:03:35 1460
   541  8.1611e-04  3.1909e-06  5.5036e-07  6.5608e-05  4.4164e-05  0:02:52 1459
   542  8.1231e-04  3.1815e-06  5.4701e-07  6.5355e-05  4.3904e-05  0:02:17 1458
   543  8.1010e-04  3.1709e-06  5.4298e-07  6.4898e-05  4.3552e-05  0:06:41 1457
   544  8.0967e-04  3.1616e-06  5.3921e-07  6.4539e-05  4.3295e-05  0:05:21 1456
   545  8.0698e-04  3.1501e-06  5.3580e-07  6.4489e-05  4.3062e-05  0:04:16 1455
   546  8.0177e-04  3.1386e-06  5.3254e-07  6.4470e-05  4.2851e-05  0:03:25 1454
   547  8.0166e-04  3.1299e-06  5.2974e-07  6.4316e-05  4.2682e-05  0:02:44 1453
   548  7.9763e-04  3.1203e-06  5.2732e-07  6.4033e-05  4.2482e-05  0:02:11 1452
   549  8.0107e-04  3.1102e-06  5.2473e-07  6.4072e-05  4.2278e-05  0:06:35 1451
   550  7.9987e-04  3.1002e-06  5.2376e-07  6.4146e-05  4.2054e-05  0:05:16 1450

  iter  continuity  x-velocity  y-velocity           k       omega     time/iter
   551  7.9948e-04  3.0929e-06  5.2296e-07  6.3958e-05  4.1817e-05  0:04:12 1449
   552  8.0074e-04  3.0842e-06  5.2202e-07  6.3635e-05  4.1579e-05  0:03:22 1448
   553  7.9693e-04  3.0735e-06  5.1997e-07  6.3251e-05  4.1319e-05  0:02:41 1447
   554  7.9721e-04  3.0649e-06  5.1743e-07  6.2905e-05  4.1120e-05  0:02:09 1446
   555  7.9869e-04  3.0559e-06  5.1481e-07  6.2579e-05  4.0976e-05  0:01:43 1445
   556  7.9536e-04  3.0469e-06  5.1374e-07  6.2287e-05  4.0824e-05  0:06:11 1444
   557  7.9528e-04  3.0401e-06  5.1272e-07  6.1937e-05  4.0582e-05  0:04:57 1443
   558  7.9473e-04  3.0319e-06  5.1163e-07  6.1543e-05  4.0376e-05  0:03:57 1442
   559  7.9540e-04  3.0210e-06  5.1075e-07  6.1123e-05  4.0354e-05  0:03:10 1441
   560  7.9315e-04  3.0117e-06  5.0989e-07  6.0742e-05  4.0342e-05  0:02:32 1440
   561  7.9151e-04  3.0006e-06  5.0888e-07  6.0502e-05  4.0251e-05  0:02:01 1439

  iter  continuity  x-velocity  y-velocity           k       omega     time/iter
   562  7.9196e-04  2.9942e-06  5.0627e-07  6.0371e-05  4.0032e-05  0:06:25 1438
   563  7.9133e-04  2.9849e-06  5.0431e-07  6.0225e-05  4.0096e-05  0:05:07 1437
   564  7.9037e-04  2.9765e-06  5.0362e-07  6.0131e-05  4.0059e-05  0:04:06 1436
   565  7.9051e-04  2.9687e-06  5.0392e-07  5.9936e-05  3.9835e-05  0:03:16 1435
   566  7.8940e-04  2.9619e-06  5.0313e-07  5.9722e-05  3.9531e-05  0:02:37 1434
   567  7.8973e-04  2.9557e-06  5.0098e-07  5.9516e-05  3.9236e-05  0:02:06 1433
   568  7.8674e-04  2.9496e-06  4.9958e-07  5.9274e-05  3.8949e-05  0:01:40 1432
   569  7.8167e-04  2.9403e-06  4.9772e-07  5.8928e-05  3.8723e-05  0:06:06 1431
   570  7.7545e-04  2.9342e-06  4.9633e-07  5.8573e-05  3.8521e-05  0:04:53 1430
   571  7.6809e-04  2.9266e-06  4.9513e-07  5.8402e-05  3.8344e-05  0:03:54 1429
   572  7.6418e-04  2.9158e-06  4.9400e-07  5.8246e-05  3.8190e-05  0:03:07 1428

  iter  continuity  x-velocity  y-velocity           k       omega     time/iter
   573  7.6291e-04  2.9091e-06  4.9152e-07  5.7887e-05  3.7985e-05  0:02:30 1427
   574  7.6033e-04  2.9016e-06  4.9074e-07  5.7552e-05  3.7811e-05  0:02:00 1426
   575  7.5746e-04  2.8940e-06  4.9000e-07  5.7525e-05  3.7699e-05  0:06:21 1425
   576  7.5958e-04  2.8878e-06  4.8984e-07  5.7584e-05  3.7608e-05  0:05:04 1424
   577  7.5756e-04  2.8819e-06  4.8913e-07  5.7522e-05  3.7550e-05  0:04:03 1423
   578  7.5799e-04  2.8776e-06  4.8800e-07  5.7324e-05  3.7496e-05  0:03:14 1422
   579  7.5720e-04  2.8734e-06  4.8790e-07  5.7380e-05  3.7401e-05  0:02:35 1421
   580  7.5723e-04  2.8672e-06  4.8712e-07  5.7537e-05  3.7324e-05  0:02:04 1420
   581  7.5656e-04  2.8600e-06  4.8634e-07  5.7482e-05  3.7206e-05  0:06:23 1419
   582  7.5192e-04  2.8514e-06  4.8427e-07  5.7273e-05  3.7094e-05  0:05:06 1418
   583  7.4414e-04  2.8445e-06  4.8298e-07  5.6896e-05  3.6979e-05  0:04:05 1417

  iter  continuity  x-velocity  y-velocity           k       omega     time/iter
   584  7.3712e-04  2.8368e-06  4.8185e-07  5.6540e-05  3.6895e-05  0:03:16 1416
   585  7.3357e-04  2.8298e-06  4.8031e-07  5.6226e-05  3.6881e-05  0:02:37 1415
   586  7.2628e-04  2.8231e-06  4.7921e-07  5.5993e-05  3.6880e-05  0:06:48 1414
   587  7.1927e-04  2.8161e-06  4.7852e-07  5.5747e-05  3.6787e-05  0:05:26 1413
   588  7.1767e-04  2.8078e-06  4.7849e-07  5.5461e-05  3.6682e-05  0:04:21 1412
   589  7.1435e-04  2.8002e-06  4.7719e-07  5.5069e-05  3.6760e-05  0:03:28 1411
   590  7.0869e-04  2.7923e-06  4.7593e-07  5.4830e-05  3.6914e-05  0:02:47 1410
   591  7.0680e-04  2.7840e-06  4.7515e-07  5.4599e-05  3.6984e-05  0:02:13 1409
   592  6.9972e-04  2.7766e-06  4.7347e-07  5.4432e-05  3.6920e-05  0:01:46 1408
   593  6.9706e-04  2.7698e-06  4.7128e-07  5.4272e-05  3.7052e-05  0:06:07 1407
   594  6.9296e-04  2.7629e-06  4.6995e-07  5.4251e-05  3.7194e-05  0:04:53 1406

  iter  continuity  x-velocity  y-velocity           k       omega     time/iter
   595  6.8942e-04  2.7547e-06  4.7023e-07  5.4166e-05  3.7142e-05  0:03:54 1405
   596  6.8200e-04  2.7482e-06  4.6866e-07  5.3994e-05  3.6975e-05  0:03:07 1404
   597  6.7843e-04  2.7420e-06  4.6671e-07  5.3767e-05  3.6769e-05  0:02:30 1403
   598  6.7190e-04  2.7334e-06  4.6551e-07  5.3518e-05  3.6596e-05  0:02:00 1402
   599  6.6413e-04  2.7274e-06  4.6493e-07  5.3200e-05  3.6458e-05  0:06:16 1401
   600  6.6120e-04  2.7203e-06  4.6422e-07  5.2888e-05  3.6363e-05  0:05:00 1400
   601  6.6061e-04  2.7128e-06  4.6284e-07  5.2758e-05  3.6275e-05  0:04:00 1399
   602  6.5833e-04  2.7058e-06  4.6155e-07  5.2619e-05  3.6227e-05  0:03:12 1398
   603  6.5250e-04  2.6989e-06  4.6006e-07  5.2299e-05  3.6167e-05  0:02:34 1397
   604  6.5339e-04  2.6931e-06  4.6012e-07  5.1955e-05  3.6046e-05  0:02:03 1396
   605  6.4955e-04  2.6876e-06  4.5932e-07  5.1867e-05  3.6024e-05  0:06:17 1395

  iter  continuity  x-velocity  y-velocity           k       omega     time/iter
   606  6.4661e-04  2.6803e-06  4.5910e-07  5.1903e-05  3.6009e-05  0:05:01 1394
   607  6.3999e-04  2.6723e-06  4.5896e-07  5.1866e-05  3.6037e-05  0:04:01 1393
   608  6.3857e-04  2.6665e-06  4.5799e-07  5.1687e-05  3.6084e-05  0:03:13 1392
   609  6.3736e-04  2.6607e-06  4.5764e-07  5.1584e-05  3.6078e-05  0:02:34 1391
   610  6.3464e-04  2.6547e-06  4.5690e-07  5.1688e-05  3.6098e-05  0:02:03 1390
   611  6.3090e-04  2.6499e-06  4.5523e-07  5.1594e-05  3.6073e-05  0:06:16 1389
   612  6.2863e-04  2.6445e-06  4.5493e-07  5.1240e-05  3.6034e-05  0:05:01 1388
   613  6.2879e-04  2.6396e-06  4.5433e-07  5.0778e-05  3.5991e-05  0:04:00 1387
   614  6.2961e-04  2.6346e-06  4.5504e-07  5.0373e-05  3.5953e-05  0:03:12 1386
   615  6.3013e-04  2.6292e-06  4.5467e-07  4.9963e-05  3.5984e-05  0:02:34 1385
   616  6.3286e-04  2.6230e-06  4.5472e-07  4.9635e-05  3.6032e-05  0:02:03 1384

  iter  continuity  x-velocity  y-velocity           k       omega     time/iter
   617  6.3259e-04  2.6178e-06  4.5337e-07  4.9337e-05  3.6017e-05  0:06:15 1383
   618  6.3248e-04  2.6129e-06  4.5403e-07  4.9054e-05  3.5948e-05  0:05:00 1382
   619  6.3304e-04  2.6074e-06  4.5399e-07  4.8604e-05  3.6017e-05  0:04:00 1381
   620  6.3213e-04  2.6014e-06  4.5343e-07  4.8332e-05  3.6211e-05  0:03:11 1380
   621  6.3333e-04  2.5948e-06  4.5345e-07  4.8076e-05  3.6352e-05  0:02:33 1379
   622  6.3323e-04  2.5904e-06  4.5350e-07  4.7854e-05  3.6351e-05  0:02:02 1378
   623  6.3451e-04  2.5847e-06  4.5331e-07  4.7638e-05  3.6435e-05  0:06:13 1377
   624  6.3164e-04  2.5789e-06  4.5377e-07  4.7551e-05  3.6651e-05  0:04:58 1376
   625  6.2905e-04  2.5726e-06  4.5263e-07  4.7440e-05  3.6674e-05  0:03:59 1375
   626  6.3036e-04  2.5654e-06  4.5193e-07  4.7237e-05  3.6555e-05  0:03:11 1374
   627  6.2880e-04  2.5590e-06  4.5209e-07  4.6966e-05  3.6358e-05  0:07:07 1373

  iter  continuity  x-velocity  y-velocity           k       omega     time/iter
   628  6.2784e-04  2.5540e-06  4.5123e-07  4.6668e-05  3.6232e-05  0:05:41 1372
   629  6.2694e-04  2.5482e-06  4.5135e-07  4.6260e-05  3.6099e-05  0:04:33 1371
   630  6.2594e-04  2.5407e-06  4.5100e-07  4.5837e-05  3.6017e-05  0:03:38 1370
   631  6.2464e-04  2.5354e-06  4.5066e-07  4.5558e-05  3.5952e-05  0:02:54 1369
   632  6.2202e-04  2.5295e-06  4.5027e-07  4.5365e-05  3.5911e-05  0:02:19 1368
   633  6.2275e-04  2.5208e-06  4.5016e-07  4.5072e-05  3.5895e-05  0:06:25 1367
   634  6.1978e-04  2.5145e-06  4.4933e-07  4.4632e-05  3.5770e-05  0:05:08 1366
   635  6.2009e-04  2.5079e-06  4.4891e-07  4.4416e-05  3.5771e-05  0:04:06 1365
   636  6.1934e-04  2.5020e-06  4.4820e-07  4.4388e-05  3.5771e-05  0:03:17 1364
   637  6.1618e-04  2.4964e-06  4.4824e-07  4.4314e-05  3.5814e-05  0:02:37 1363
   638  6.1760e-04  2.4903e-06  4.4846e-07  4.4101e-05  3.5864e-05  0:02:06 1362

  iter  continuity  x-velocity  y-velocity           k       omega     time/iter
   639  6.1626e-04  2.4832e-06  4.4761e-07  4.3819e-05  3.5862e-05  0:06:13 1361
   640  6.1643e-04  2.4772e-06  4.4683e-07  4.3909e-05  3.5893e-05  0:04:58 1360
   641  6.1649e-04  2.4716e-06  4.4694e-07  4.3869e-05  3.5886e-05  0:03:58 1359
   642  6.1334e-04  2.4667e-06  4.4638e-07  4.3581e-05  3.5857e-05  0:03:10 1358
   643  6.1259e-04  2.4585e-06  4.4694e-07  4.3192e-05  3.5835e-05  0:02:32 1357
   644  6.1176e-04  2.4521e-06  4.4611e-07  4.2786e-05  3.5808e-05  0:02:02 1356
   645  6.1252e-04  2.4449e-06  4.4565e-07  4.2371e-05  3.5838e-05  0:06:08 1355
   646  6.0845e-04  2.4380e-06  4.4487e-07  4.2016e-05  3.5909e-05  0:04:54 1354
   647  6.0533e-04  2.4305e-06  4.4350e-07  4.1705e-05  3.5936e-05  0:03:55 1353
   648  6.0233e-04  2.4215e-06  4.4235e-07  4.1406e-05  3.5865e-05  0:03:08 1352
   649  5.9816e-04  2.4133e-06  4.4121e-07  4.1006e-05  3.5884e-05  0:02:30 1351

  iter  continuity  x-velocity  y-velocity           k       omega     time/iter
   650  5.9947e-04  2.4081e-06  4.3915e-07  4.0674e-05  3.6071e-05  0:02:00 1350
   651  5.9445e-04  2.4006e-06  4.3905e-07  4.0396e-05  3.6235e-05  0:06:06 1349
   652  5.9194e-04  2.3950e-06  4.3847e-07  4.0160e-05  3.6274e-05  0:04:53 1348
   653  5.8852e-04  2.3898e-06  4.3738e-07  3.9990e-05  3.6268e-05  0:03:54 1347
   654  5.9017e-04  2.3830e-06  4.3551e-07  3.9886e-05  3.6516e-05  0:03:07 1346
   655  5.9226e-04  2.3766e-06  4.3577e-07  3.9777e-05  3.6615e-05  0:02:29 1345
   656  5.9484e-04  2.3676e-06  4.3574e-07  3.9600e-05  3.6503e-05  0:01:59 1344
   657  5.9545e-04  2.3581e-06  4.3532e-07  3.9332e-05  3.6335e-05  0:06:04 1343
   658  5.8805e-04  2.3496e-06  4.3414e-07  3.9008e-05  3.6193e-05  0:04:51 1342
   659  5.8482e-04  2.3409e-06  4.3258e-07  3.8640e-05  3.6049e-05  0:03:53 1341
   660  5.8223e-04  2.3330e-06  4.3147e-07  3.8216e-05  3.5957e-05  0:03:06 1340

  iter  continuity  x-velocity  y-velocity           k       omega     time/iter
   661  5.7989e-04  2.3253e-06  4.2976e-07  3.7910e-05  3.5884e-05  0:02:29 1339
   662  5.7456e-04  2.3172e-06  4.2818e-07  3.7729e-05  3.5819e-05  0:01:59 1338
   663  5.6979e-04  2.3098e-06  4.2615e-07  3.7520e-05  3.5795e-05  0:01:35 1337
   664  5.6939e-04  2.3035e-06  4.2576e-07  3.7135e-05  3.5678e-05  0:05:43 1336
   665  5.6667e-04  2.2964e-06  4.2476e-07  3.6924e-05  3.5638e-05  0:04:34 1335
   666  5.6286e-04  2.2882e-06  4.2330e-07  3.6958e-05  3.5629e-05  0:03:39 1334
   667  5.5865e-04  2.2809e-06  4.2194e-07  3.7009e-05  3.5651e-05  0:02:55 1333
   668  5.5865e-04  2.2730e-06  4.2095e-07  3.6904e-05  3.5699e-05  0:02:20 1332
   669  5.5561e-04  2.2661e-06  4.1972e-07  3.6605e-05  3.5725e-05  0:01:52 1331
   670  5.5157e-04  2.2577e-06  4.1816e-07  3.6677e-05  3.5728e-05  0:05:56 1330
   671  5.4994e-04  2.2502e-06  4.1637e-07  3.6724e-05  3.5721e-05  0:04:44 1329

  iter  continuity  x-velocity  y-velocity           k       omega     time/iter
   672  5.4645e-04  2.2415e-06  4.1449e-07  3.6512e-05  3.5686e-05  0:03:47 1328
   673  5.4105e-04  2.2327e-06  4.1424e-07  3.6173e-05  3.5646e-05  0:03:02 1327
   674  5.3755e-04  2.2249e-06  4.1225e-07  3.5745e-05  3.5594e-05  0:02:25 1326
   675  5.3334e-04  2.2162e-06  4.1047e-07  3.5361e-05  3.5587e-05  0:06:21 1325
   676  5.3030e-04  2.2088e-06  4.0890e-07  3.4971e-05  3.5621e-05  0:05:05 1324
   677  5.3006e-04  2.2009e-06  4.0686e-07  3.4664e-05  3.5661e-05  0:04:04 1323
   678  5.2412e-04  2.1941e-06  4.0508e-07  3.4363e-05  3.5588e-05  0:03:15 1322
   679  5.2607e-04  2.1874e-06  4.0455e-07  3.4053e-05  3.5564e-05  0:07:00 1321
   680  5.2209e-04  2.1801e-06  4.0273e-07  3.3660e-05  3.5699e-05  0:05:36 1320
   681  5.1887e-04  2.1729e-06  4.0074e-07  3.3421e-05  3.5890e-05  0:04:28 1319
   682  5.1833e-04  2.1658e-06  4.0011e-07  3.3131e-05  3.5945e-05  0:03:34 1318

  iter  continuity  x-velocity  y-velocity           k       omega     time/iter
   683  5.1749e-04  2.1591e-06  3.9897e-07  3.2926e-05  3.5886e-05  0:07:15 1317
   684  5.1556e-04  2.1511e-06  3.9744e-07  3.2695e-05  3.6104e-05  0:05:48 1316
   685  5.1455e-04  2.1439e-06  3.9624e-07  3.2625e-05  3.6240e-05  0:04:38 1315
   686  5.1006e-04  2.1371e-06  3.9393e-07  3.2448e-05  3.6157e-05  0:08:05 1314
   687  5.0792e-04  2.1283e-06  3.9225e-07  3.2244e-05  3.6000e-05  0:06:28 1313
   688  5.0714e-04  2.1212e-06  3.9010e-07  3.1965e-05  3.5812e-05  0:05:10 1312
   689  5.0558e-04  2.1143e-06  3.8866e-07  3.1686e-05  3.5657e-05  0:04:08 1311
   690  5.0392e-04  2.1081e-06  3.8727e-07  3.1317e-05  3.5527e-05  0:07:40 1310
   691  5.0484e-04  2.1027e-06  3.8623e-07  3.1033e-05  3.5443e-05  0:06:08 1309
   692  5.0290e-04  2.0965e-06  3.8508e-07  3.0878e-05  3.5344e-05  0:04:54 1308
   693  5.0055e-04  2.0900e-06  3.8388e-07  3.0752e-05  3.5301e-05  0:03:55 1307

  iter  continuity  x-velocity  y-velocity           k       omega     time/iter
   694  4.9861e-04  2.0826e-06  3.8250e-07  3.0399e-05  3.5193e-05  0:07:29 1306
   695  4.9645e-04  2.0739e-06  3.8128e-07  3.0120e-05  3.5108e-05  0:05:59 1305
   696  4.9336e-04  2.0673e-06  3.7976e-07  3.0117e-05  3.5062e-05  0:04:47 1304
   697  4.9319e-04  2.0596e-06  3.7734e-07  3.0166e-05  3.5057e-05  0:03:49 1303
   698  4.9315e-04  2.0525e-06  3.7628e-07  3.0075e-05  3.5064e-05  0:07:24 1302
   699  4.9453e-04  2.0458e-06  3.7451e-07  2.9855e-05  3.5092e-05  0:05:55 1301
   700  4.9158e-04  2.0398e-06  3.7232e-07  2.9850e-05  3.5055e-05  0:04:44 1300
   701  4.9062e-04  2.0338e-06  3.7094e-07  2.9946e-05  3.5048e-05  0:08:06 1299
   702  4.9014e-04  2.0277e-06  3.6923e-07  2.9834e-05  3.4986e-05  0:06:29 1298
   703  4.9040e-04  2.0209e-06  3.6751e-07  2.9578e-05  3.4930e-05  0:05:11 1297
   704  4.8904e-04  2.0145e-06  3.6659e-07  2.9194e-05  3.4841e-05  0:04:09 1296

  iter  continuity  x-velocity  y-velocity           k       omega     time/iter
   705  4.8518e-04  2.0084e-06  3.6442e-07  2.8892e-05  3.4797e-05  0:07:38 1295
   706  4.8375e-04  2.0022e-06  3.6326e-07  2.8528e-05  3.4801e-05  0:06:06 1294
   707  4.8310e-04  1.9955e-06  3.6217e-07  2.8258e-05  3.4832e-05  0:04:52 1293
   708  4.8562e-04  1.9896e-06  3.6049e-07  2.7959e-05  3.4757e-05  0:03:54 1292
   709  4.8254e-04  1.9825e-06  3.5920e-07  2.7648e-05  3.4679e-05  0:07:25 1291
   710  4.8000e-04  1.9740e-06  3.5806e-07  2.7237e-05  3.4752e-05  0:05:56 1290
   711  4.7603e-04  1.9663e-06  3.5595e-07  2.6981e-05  3.4920e-05  0:04:44 1289
   712  4.7525e-04  1.9611e-06  3.5358e-07  2.6748e-05  3.4979e-05  0:08:05 1288
   713  4.7436e-04  1.9545e-06  3.5256e-07  2.6603e-05  3.4911e-05  0:06:28 1287
   714  4.7262e-04  1.9496e-06  3.5115e-07  2.6446e-05  3.5022e-05  0:05:10 1286
   715  4.6849e-04  1.9419e-06  3.5004e-07  2.6470e-05  3.5152e-05  0:04:08 1285

  iter  continuity  x-velocity  y-velocity           k       omega     time/iter
   716  4.6862e-04  1.9355e-06  3.4912e-07  2.6404e-05  3.5074e-05  0:07:35 1284
   717  4.7060e-04  1.9302e-06  3.4723e-07  2.6296e-05  3.4883e-05  0:06:04 1283
   718  4.6802e-04  1.9248e-06  3.4601e-07  2.6118e-05  3.4646e-05  0:04:51 1282
   719  4.6659e-04  1.9175e-06  3.4512e-07  2.5914e-05  3.4467e-05  0:08:09 1281
   720  4.6387e-04  1.9123e-06  3.4368e-07  2.5631e-05  3.4306e-05  0:06:31 1280
   721  4.6475e-04  1.9080e-06  3.4253e-07  2.5402e-05  3.4196e-05  0:05:12 1279
   722  4.6231e-04  1.9029e-06  3.4125e-07  2.5328e-05  3.4081e-05  0:08:25 1278
   723  4.5838e-04  1.8959e-06  3.3989e-07  2.5254e-05  3.4004e-05  0:06:44 1277
   724  4.6030e-04  1.8891e-06  3.3733e-07  2.5002e-05  3.3905e-05  0:05:23 1276
   725  4.5955e-04  1.8840e-06  3.3604e-07  2.4765e-05  3.3746e-05  0:04:18 1275
   726  4.5591e-04  1.8783e-06  3.3515e-07  2.4756e-05  3.3667e-05  0:07:41 1274

  iter  continuity  x-velocity  y-velocity           k       omega     time/iter
   727  4.5564e-04  1.8721e-06  3.3362e-07  2.4879e-05  3.3617e-05  0:06:09 1273
   728  4.5075e-04  1.8666e-06  3.3264e-07  2.4894e-05  3.3590e-05  0:04:55 1272
   729  4.5170e-04  1.8604e-06  3.3130e-07  2.4812e-05  3.3594e-05  0:03:56 1271
   730  4.4933e-04  1.8530e-06  3.2980e-07  2.4790e-05  3.3534e-05  0:07:22 1270
   731  4.4939e-04  1.8482e-06  3.2809e-07  2.5001e-05  3.3501e-05  0:05:54 1269
   732  4.4849e-04  1.8439e-06  3.2656e-07  2.5018e-05  3.3415e-05  0:04:43 1268
   733  4.4496e-04  1.8383e-06  3.2611e-07  2.4843e-05  3.3326e-05  0:07:59 1267
   734  4.4314e-04  1.8304e-06  3.2485e-07  2.4537e-05  3.3224e-05  0:06:23 1266
   735  4.4274e-04  1.8254e-06  3.2406e-07  2.4334e-05  3.3139e-05  0:05:06 1265
   736  4.4272e-04  1.8197e-06  3.2262e-07  2.4049e-05  3.3118e-05  0:04:05 1264
   737  4.4240e-04  1.8148e-06  3.2165e-07  2.3861e-05  3.3121e-05  0:07:28 1263

  iter  continuity  x-velocity  y-velocity           k       omega     time/iter
   738  4.4240e-04  1.8097e-06  3.2153e-07  2.3642e-05  3.3034e-05  0:05:58 1262
   739  4.4166e-04  1.8036e-06  3.2055e-07  2.3458e-05  3.2867e-05  0:04:46 1261
   740  4.4287e-04  1.8004e-06  3.1973e-07  2.3077e-05  3.2805e-05  0:03:49 1260
   741  4.3930e-04  1.7951e-06  3.1953e-07  2.2892e-05  3.2903e-05  0:07:15 1259
   742  4.4068e-04  1.7888e-06  3.1853e-07  2.2739e-05  3.2931e-05  0:05:48 1258
   743  4.3837e-04  1.7837e-06  3.1731e-07  2.2665e-05  3.2843e-05  0:04:38 1257
   744  4.3567e-04  1.7789e-06  3.1639e-07  2.2590e-05  3.2823e-05  0:03:42 1256
   745  4.3466e-04  1.7729e-06  3.1450e-07  2.2669e-05  3.2972e-05  0:07:09 1255
   746  4.3481e-04  1.7683e-06  3.1316e-07  2.2690e-05  3.2940e-05  0:05:43 1254
   747  4.3151e-04  1.7628e-06  3.1249e-07  2.2660e-05  3.2736e-05  0:04:34 1253
   748  4.3135e-04  1.7573e-06  3.1172e-07  2.2545e-05  3.2449e-05  0:07:49 1252

  iter  continuity  x-velocity  y-velocity           k       omega     time/iter
   749  4.2924e-04  1.7513e-06  3.1134e-07  2.2430e-05  3.2232e-05  0:06:15 1251
   750  4.2780e-04  1.7472e-06  3.1069e-07  2.2215e-05  3.1992e-05  0:05:00 1250
   751  4.2565e-04  1.7419e-06  3.0902e-07  2.2032e-05  3.1816e-05  0:04:00 1249
   752  4.2196e-04  1.7377e-06  3.0811e-07  2.1938e-05  3.1646e-05  0:07:21 1248
   753  4.2314e-04  1.7325e-06  3.0779e-07  2.1973e-05  3.1511e-05  0:05:53 1247
   754  4.2395e-04  1.7295e-06  3.0742e-07  2.1855e-05  3.1402e-05  0:04:42 1246
   755  4.2279e-04  1.7247e-06  3.0719e-07  2.1661e-05  3.1176e-05  0:03:45 1245
   756  4.1941e-04  1.7202e-06  3.0631e-07  2.1669e-05  3.1061e-05  0:07:09 1244
   757  4.1880e-04  1.7159e-06  3.0578e-07  2.1917e-05  3.0957e-05  0:05:43 1243
   758  4.1869e-04  1.7110e-06  3.0492e-07  2.2086e-05  3.0873e-05  0:04:34 1242
   759  4.1513e-04  1.7062e-06  3.0439e-07  2.2151e-05  3.0826e-05  0:07:47 1241

  iter  continuity  x-velocity  y-velocity           k       omega     time/iter
   760  4.1689e-04  1.7016e-06  3.0393e-07  2.2124e-05  3.0708e-05  0:06:14 1240
   761  4.1444e-04  1.6946e-06  3.0260e-07  2.2476e-05  3.0630e-05  0:04:59 1239
   762  4.1496e-04  1.6909e-06  3.0220e-07  2.2637e-05  3.0501e-05  0:03:59 1238
   763  4.1485e-04  1.6858e-06  3.0136e-07  2.2576e-05  3.0355e-05  0:07:18 1237
   764  4.1196e-04  1.6815e-06  3.0099e-07  2.2355e-05  3.0206e-05  0:05:50 1236
   765  4.1235e-04  1.6794e-06  3.0030e-07  2.2159e-05  3.0056e-05  0:04:40 1235
   766  4.1160e-04  1.6737e-06  2.9989e-07  2.1918e-05  2.9960e-05  0:07:51 1234
   767  4.1162e-04  1.6695e-06  2.9936e-07  2.1795e-05  2.9912e-05  0:06:16 1233
   768  4.0967e-04  1.6656e-06  2.9848e-07  2.1681e-05  2.9821e-05  0:05:01 1232
   769  4.1113e-04  1.6618e-06  2.9822e-07  2.1645e-05  2.9641e-05  0:08:07 1231
   770  4.0887e-04  1.6579e-06  2.9792e-07  2.1432e-05  2.9534e-05  0:06:29 1230

  iter  continuity  x-velocity  y-velocity           k       omega     time/iter
   771  4.0973e-04  1.6551e-06  2.9716e-07  2.1354e-05  2.9611e-05  0:05:11 1229
   772  4.1024e-04  1.6503e-06  2.9663e-07  2.1314e-05  2.9645e-05  0:04:09 1228
[...]
  1818  2.2217e-04  5.0785e-07  1.2143e-07  8.4063e-06  1.4702e-06  0:00:39  182
  1819  2.2340e-04  5.0730e-07  1.2174e-07  8.4311e-06  1.4782e-06  0:00:31  181
  1820  2.2415e-04  5.0800e-07  1.2117e-07  8.6966e-06  1.5091e-06  0:00:25  180
  1821  2.2445e-04  5.0749e-07  1.2169e-07  8.8075e-06  1.5002e-06  0:00:20  179
  1822  2.2403e-04  5.0812e-07  1.2171e-07  8.7022e-06  1.4692e-06  0:00:16  178
  1823  2.2381e-04  5.0658e-07  1.2187e-07  8.5262e-06  1.4454e-06  0:00:48  177
  1824  2.2733e-04  5.0614e-07  1.2194e-07  8.3662e-06  1.3992e-06  0:00:38  176
  1825  2.2396e-04  5.0616e-07  1.2176e-07  8.2320e-06  1.4363e-06  0:00:30  175
  1826  2.2461e-04  5.0552e-07  1.2172e-07  8.1605e-06  1.5054e-06  0:00:24  174

  iter  continuity  x-velocity  y-velocity           k       omega     time/iter
  1827  2.2560e-04  5.0550e-07  1.2165e-07  8.1530e-06  1.5438e-06  0:00:19  173
  1828  2.2498e-04  5.0518e-07  1.2142e-07  8.1611e-06  1.4753e-06  0:00:15  172
  1829  2.2428e-04  5.0468e-07  1.2102e-07  8.0342e-06  1.5175e-06  0:00:46  171
  1830  2.2417e-04  5.0486e-07  1.2123e-07  8.0073e-06  1.7291e-06  0:00:37  170
  1831  2.2467e-04  5.0473e-07  1.2128e-07  8.0723e-06  1.9278e-06  0:00:29  169
  1832  2.2369e-04  5.0350e-07  1.2046e-07  8.1585e-06  1.9913e-06  0:00:23  168
  1833  2.2542e-04  5.0342e-07  1.2185e-07  8.3338e-06  1.9957e-06  0:00:19  167
  1834  2.2670e-04  5.0286e-07  1.2031e-07  8.6219e-06  2.2351e-06  0:00:48  166
  1835  2.2882e-04  5.0414e-07  1.2146e-07  9.0169e-06  2.3250e-06  0:00:38  165
  1836  2.3287e-04  5.0484e-07  1.2160e-07  8.9395e-06  2.1953e-06  0:00:30  164
  1837  2.3208e-04  5.0483e-07  1.2188e-07  8.7803e-06  2.0283e-06  0:00:24  163

  iter  continuity  x-velocity  y-velocity           k       omega     time/iter
  1838  2.3244e-04  5.0415e-07  1.2196e-07  8.4314e-06  1.8811e-06  0:00:19  162
  1839  2.3401e-04  5.0419e-07  1.2224e-07  8.2995e-06  1.7479e-06  0:00:15  161
  1840  2.3088e-04  5.0311e-07  1.2168e-07  8.1265e-06  1.6430e-06  0:00:44  160
  1841  2.2804e-04  5.0194e-07  1.2141e-07  8.1120e-06  1.5897e-06  0:00:35  159
  1842  2.2495e-04  5.0073e-07  1.1988e-07  8.1674e-06  1.5317e-06  0:00:28  158
  1843  2.2243e-04  5.0094e-07  1.1951e-07  8.2569e-06  1.5204e-06  0:00:22  157
  1844  2.2505e-04  4.9979e-07  1.1947e-07  8.2106e-06  1.4100e-06  0:00:18  156
  1845  2.2417e-04  5.0012e-07  1.2042e-07  8.3444e-06  1.3837e-06  0:00:14  155
  1846  2.2260e-04  4.9924e-07  1.1914e-07  8.5120e-06  1.3781e-06  0:00:11  154
  1847  2.2274e-04  4.9953e-07  1.1910e-07  8.6675e-06  1.4136e-06  0:00:39  153
  1848  2.2256e-04  4.9881e-07  1.1927e-07  8.6631e-06  1.4686e-06  0:00:31  152

  iter  continuity  x-velocity  y-velocity           k       omega     time/iter
  1849  2.2353e-04  4.9864e-07  1.1911e-07  8.5845e-06  1.5016e-06  0:00:25  151
  1850  2.2089e-04  4.9788e-07  1.1904e-07  8.8360e-06  1.5160e-06  0:00:20  150
  1851  2.2158e-04  4.9835e-07  1.1897e-07  9.0729e-06  1.5174e-06  0:00:16  149
  1852  2.1995e-04  4.9766e-07  1.1921e-07  9.1093e-06  1.4896e-06  0:00:13  148
  1853  2.2019e-04  4.9721e-07  1.1903e-07  9.0143e-06  1.4681e-06  0:00:39  147
  1854  2.2089e-04  4.9639e-07  1.1889e-07  8.8133e-06  1.4205e-06  0:00:31  146
  1855  2.1694e-04  4.9615e-07  1.1867e-07  8.6124e-06  1.4314e-06  0:00:25  145
  1856  2.1795e-04  4.9576e-07  1.1848e-07  8.4193e-06  1.4860e-06  0:00:20  144
  1857  2.1811e-04  4.9524e-07  1.1844e-07  8.3453e-06  1.5403e-06  0:00:16  143
  1858  2.1577e-04  4.9478e-07  1.1853e-07  8.3308e-06  1.4822e-06  0:00:12  142
  1859  2.1792e-04  4.9452e-07  1.1832e-07  8.3333e-06  1.4813e-06  0:00:38  141

  iter  continuity  x-velocity  y-velocity           k       omega     time/iter
  1860  2.1895e-04  4.9435e-07  1.1822e-07  8.3581e-06  1.6436e-06  0:00:30  140
  1861  2.2079e-04  4.9469e-07  1.1868e-07  8.3115e-06  1.8575e-06  0:00:24  139
  1862  2.1922e-04  4.9451e-07  1.1865e-07  8.1898e-06  1.9520e-06  0:00:19  138
  1863  2.2139e-04  4.9427e-07  1.1876e-07  8.0942e-06  1.9099e-06  0:00:15  137
  1864  2.2255e-04  4.9363e-07  1.1927e-07  8.0950e-06  2.1545e-06  0:00:12  136
  1865  2.2341e-04  4.9317e-07  1.1922e-07  8.1901e-06  2.3007e-06  0:00:10  135
  1866  2.2480e-04  4.9327e-07  1.2047e-07  8.1345e-06  2.2235e-06  0:00:34  134
  1867  2.2562e-04  4.9363e-07  1.1942e-07  8.0890e-06  2.0612e-06  0:00:27  133
  1868  2.2539e-04  4.9304e-07  1.2079e-07  7.9887e-06  1.8887e-06  0:00:22  132
  1869  2.2542e-04  4.9290e-07  1.1883e-07  7.8940e-06  1.7419e-06  0:00:17  131
  1870  2.2652e-04  4.9259e-07  1.1973e-07  7.7171e-06  1.6335e-06  0:00:14  130

  iter  continuity  x-velocity  y-velocity           k       omega     time/iter
  1871  2.2386e-04  4.9116e-07  1.1868e-07  7.6384e-06  1.5662e-06  0:00:11  129
  1872  2.2233e-04  4.9082e-07  1.1828e-07  7.6943e-06  1.4979e-06  0:00:34  128
  1873  2.2419e-04  4.9096e-07  1.1804e-07  7.7866e-06  1.4799e-06  0:00:27  127
  1874  2.2317e-04  4.9065e-07  1.1787e-07  7.6558e-06  1.3981e-06  0:00:22  126
  1875  2.2266e-04  4.9075e-07  1.1793e-07  7.5999e-06  1.3389e-06  0:00:17  125
  1876  2.2006e-04  4.9005e-07  1.1776e-07  7.8180e-06  1.3329e-06  0:00:14  124
  1877  2.2240e-04  4.8981e-07  1.1804e-07  8.0862e-06  1.3695e-06  0:00:35  123
  1878  2.2263e-04  4.8980e-07  1.1801e-07  8.2244e-06  1.4225e-06  0:00:28  122
  1879  2.2204e-04  4.8973e-07  1.1777e-07  8.2314e-06  1.4869e-06  0:00:22  121
  1880  2.2167e-04  4.9004e-07  1.1778e-07  8.5047e-06  1.4956e-06  0:00:18  120
  1881  2.1901e-04  4.8918e-07  1.1769e-07  8.8347e-06  1.5189e-06  0:00:14  119

  iter  continuity  x-velocity  y-velocity           k       omega     time/iter
  1882  2.1923e-04  4.8886e-07  1.1756e-07  8.9377e-06  1.4995e-06  0:00:11  118
  1883  2.1960e-04  4.8820e-07  1.1741e-07  8.9387e-06  1.4823e-06  0:00:32  117
  1884  2.1878e-04  4.8736e-07  1.1720e-07  8.8556e-06  1.4447e-06  0:00:26  116
  1885  2.1891e-04  4.8673e-07  1.1728e-07  8.8956e-06  1.4524e-06  0:00:20  115
  1886  2.1988e-04  4.8674e-07  1.1696e-07  8.9060e-06  1.5219e-06  0:00:16  114
  1887  2.1746e-04  4.8609e-07  1.1762e-07  8.8730e-06  1.5837e-06  0:00:13  113
  1888  2.1797e-04  4.8549e-07  1.1714e-07  8.5530e-06  1.5418e-06  0:00:10  112
  1889  2.1942e-04  4.8528e-07  1.1718e-07  8.3695e-06  1.4962e-06  0:00:30  111
  1890  2.1844e-04  4.8520e-07  1.1740e-07  8.1903e-06  1.6051e-06  0:00:24  110
  1891  2.1886e-04  4.8488e-07  1.1715e-07  8.1796e-06  1.8352e-06  0:00:19  109
  1892  2.2097e-04  4.8492e-07  1.1700e-07  8.1595e-06  1.9555e-06  0:00:15  108

  iter  continuity  x-velocity  y-velocity           k       omega     time/iter
  1893  2.2204e-04  4.8481e-07  1.1730e-07  8.2037e-06  1.9387e-06  0:00:12  107
  1894  2.2196e-04  4.8399e-07  1.1740e-07  8.2581e-06  2.1087e-06  0:00:09  106
  1895  2.2086e-04  4.8349e-07  1.1724e-07  8.5319e-06  2.3043e-06  0:00:07  105
  1896  2.2132e-04  4.8319e-07  1.1721e-07  8.6741e-06  2.2854e-06  0:00:27  104
  1897  2.2156e-04  4.8281e-07  1.1730e-07  8.6885e-06  2.1476e-06  0:00:21  103
  1898  2.2019e-04  4.8201e-07  1.1740e-07  8.5740e-06  1.9528e-06  0:00:17  102
  1899  2.2125e-04  4.8249e-07  1.1714e-07  8.4521e-06  1.8062e-06  0:00:13  101
  1900  2.2079e-04  4.8162e-07  1.1705e-07  8.2584e-06  1.6815e-06  0:00:11  100
  1901  2.1862e-04  4.8179e-07  1.1672e-07  8.2352e-06  1.6076e-06  0:00:08   99
  1902  2.2264e-04  4.8155e-07  1.1667e-07  8.4100e-06  1.5322e-06  0:00:26   98
  1903  2.2151e-04  4.8156e-07  1.1717e-07  8.6252e-06  1.5077e-06  0:00:21   97

  iter  continuity  x-velocity  y-velocity           k       omega     time/iter
  1904  2.2026e-04  4.8109e-07  1.1664e-07  8.4268e-06  1.4574e-06  0:00:16   96
  1905  2.2115e-04  4.8092e-07  1.1657e-07  8.2565e-06  1.3658e-06  0:00:13   95
  1906  2.2115e-04  4.8102e-07  1.1666e-07  8.2457e-06  1.3585e-06  0:00:10   94
  1907  2.2277e-04  4.8043e-07  1.1714e-07  8.4420e-06  1.3789e-06  0:00:08   93
  1908  2.2326e-04  4.8058e-07  1.1846e-07  8.5105e-06  1.4174e-06  0:00:06   92
  1909  2.2276e-04  4.8095e-07  1.1736e-07  8.4159e-06  1.4910e-06  0:00:23   91
  1910  2.2238e-04  4.8108e-07  1.1701e-07  8.5049e-06  1.4953e-06  0:00:18   90
  1911  2.2268e-04  4.8109e-07  1.1708e-07  8.7886e-06  1.5410e-06  0:00:15   89
  1912  2.2426e-04  4.8131e-07  1.1839e-07  8.8508e-06  1.5291e-06  0:00:12   88
  1913  2.2677e-04  4.8096e-07  1.1763e-07  8.7627e-06  1.5101e-06  0:00:09   87
  1914  2.2541e-04  4.8055e-07  1.1754e-07  8.5489e-06  1.4616e-06  0:00:07   86

  iter  continuity  x-velocity  y-velocity           k       omega     time/iter
  1915  2.2942e-04  4.8097e-07  1.1878e-07  8.4526e-06  1.4268e-06  0:00:23   85
  1916  2.2908e-04  4.8061e-07  1.1772e-07  8.2855e-06  1.4646e-06  0:00:18   84
  1917  2.2844e-04  4.7952e-07  1.1813e-07  8.2198e-06  1.5351e-06  0:00:14   83
  1918  2.2972e-04  4.7979e-07  1.1901e-07  8.1497e-06  1.5296e-06  0:00:11   82
  1919  2.2837e-04  4.7899e-07  1.1800e-07  8.1187e-06  1.4707e-06  0:00:09   81
  1920  2.3007e-04  4.7867e-07  1.1864e-07  7.9157e-06  1.5435e-06  0:00:23   80
  1921  2.2843e-04  4.7883e-07  1.1851e-07  7.8875e-06  1.7604e-06  0:00:18   79
  1922  2.2603e-04  4.7781e-07  1.1736e-07  7.8617e-06  1.9075e-06  0:00:14   78
  1923  2.2532e-04  4.7796e-07  1.1842e-07  7.8980e-06  1.9238e-06  0:00:11   77
  1924  2.2395e-04  4.7811e-07  1.1712e-07  7.9182e-06  2.0076e-06  0:00:09   76
  1925  2.2615e-04  4.7739e-07  1.1819e-07  8.0921e-06  2.2355e-06  0:00:07   75

  iter  continuity  x-velocity  y-velocity           k       omega     time/iter
  1926  2.2645e-04  4.7822e-07  1.1754e-07  8.1969e-06  2.2701e-06  0:00:20   74
  1927  2.2833e-04  4.7820e-07  1.1749e-07  8.2523e-06  2.1487e-06  0:00:16   73
  1928  2.3267e-04  4.7840e-07  1.1925e-07  8.2241e-06  1.9510e-06  0:00:13   72
  1929  2.3432e-04  4.7827e-07  1.1800e-07  8.1884e-06  1.8276e-06  0:00:10   71
  1930  2.3651e-04  4.7864e-07  1.1946e-07  8.0435e-06  1.6873e-06  0:00:08   70
  1931  2.3532e-04  4.7795e-07  1.1957e-07  7.9381e-06  1.6114e-06  0:00:06   69
  1932  2.3476e-04  4.7739e-07  1.1971e-07  7.9517e-06  1.5455e-06  0:00:05   68
  1933  2.3131e-04  4.7587e-07  1.1957e-07  8.0520e-06  1.5048e-06  0:00:17   67
  1934  2.2861e-04  4.7530e-07  1.1794e-07  7.9866e-06  1.4889e-06  0:00:14   66
  1935  2.2580e-04  4.7404e-07  1.1754e-07  7.8592e-06  1.3596e-06  0:00:11   65
  1936  2.2485e-04  4.7303e-07  1.1722e-07  7.9342e-06  1.3565e-06  0:00:08   64

  iter  continuity  x-velocity  y-velocity           k       omega     time/iter
  1937  2.2039e-04  4.7287e-07  1.1672e-07  8.1915e-06  1.3666e-06  0:00:07   63
  1938  2.2133e-04  4.7232e-07  1.1650e-07  8.3775e-06  1.4050e-06  0:00:05   62
  1939  2.1789e-04  4.7190e-07  1.1674e-07  8.4352e-06  1.4761e-06  0:00:16   61
  1940  2.2166e-04  4.7203e-07  1.1676e-07  8.4649e-06  1.4804e-06  0:00:13   60
  1941  2.2244e-04  4.7177e-07  1.1682e-07  8.8188e-06  1.5228e-06  0:00:10   59
  1942  2.1882e-04  4.7183e-07  1.1706e-07  9.0015e-06  1.5199e-06  0:00:08   58
  1943  2.2542e-04  4.7234e-07  1.1698e-07  8.9664e-06  1.5007e-06  0:00:06   57
  1944  2.2529e-04  4.7246e-07  1.1740e-07  8.8140e-06  1.4713e-06  0:00:05   56
  1945  2.2498e-04  4.7244e-07  1.1757e-07  8.6881e-06  1.4351e-06  0:00:15   55
  1946  2.2524e-04  4.7186e-07  1.1761e-07  8.5193e-06  1.4613e-06  0:00:12   54
  1947  2.2657e-04  4.7110e-07  1.1759e-07  8.4437e-06  1.5357e-06  0:00:09   53

  iter  continuity  x-velocity  y-velocity           k       omega     time/iter
  1948  2.2481e-04  4.7069e-07  1.1724e-07  8.3649e-06  1.5606e-06  0:00:07   52
  1949  2.2393e-04  4.7007e-07  1.1729e-07  8.3465e-06  1.5047e-06  0:00:06   51
  1950  2.2228e-04  4.6945e-07  1.1720e-07  8.1322e-06  1.5267e-06  0:00:04   50
  1951  2.1900e-04  4.6911e-07  1.1622e-07  8.0783e-06  1.7334e-06  0:00:03   49
  1952  2.2031e-04  4.6894e-07  1.1700e-07  8.0320e-06  1.9003e-06  0:00:12   48
  1953  2.2148e-04  4.6867e-07  1.1719e-07  8.0634e-06  1.9570e-06  0:00:10   47
  1954  2.1808e-04  4.6860e-07  1.1723e-07  8.0775e-06  1.9441e-06  0:00:08   46
  1955  2.2025e-04  4.6797e-07  1.1710e-07  8.2387e-06  2.2232e-06  0:00:06   45
  1956  2.2265e-04  4.6755e-07  1.1736e-07  8.3478e-06  2.3203e-06  0:00:05   44
  1957  2.2506e-04  4.6789e-07  1.1741e-07  8.4456e-06  2.2108e-06  0:00:04   43
  1958  2.2541e-04  4.6840e-07  1.1760e-07  8.4173e-06  2.0347e-06  0:00:11   42

  iter  continuity  x-velocity  y-velocity           k       omega     time/iter
  1959  2.2581e-04  4.6783e-07  1.1797e-07  8.4267e-06  1.8901e-06  0:00:09   41
  1960  2.2810e-04  4.6805e-07  1.1792e-07  8.2968e-06  1.7378e-06  0:00:07   40
  1961  2.2896e-04  4.6829e-07  1.1778e-07  8.2170e-06  1.6415e-06  0:00:05   39
  1962  2.3121e-04  4.6798e-07  1.1845e-07  8.1595e-06  1.5624e-06  0:00:04   38
  1963  2.3185e-04  4.6767e-07  1.1826e-07  8.2913e-06  1.5092e-06  0:00:11   37
  1964  2.3146e-04  4.6695e-07  1.1972e-07  8.2658e-06  1.4845e-06  0:00:08   36
  1965  2.2951e-04  4.6650e-07  1.1872e-07  8.1492e-06  1.3785e-06  0:00:06   35
  1966  2.3074e-04  4.6484e-07  1.1950e-07  8.0941e-06  1.3397e-06  0:00:05   34
  1967  2.2719e-04  4.6501e-07  1.1885e-07  8.3696e-06  1.3452e-06  0:00:04   33
  1968  2.2556e-04  4.6444e-07  1.1835e-07  8.5307e-06  1.3680e-06  0:00:03   32
  1969  2.2594e-04  4.6450e-07  1.1798e-07  8.6554e-06  1.4375e-06  0:00:09   31

  iter  continuity  x-velocity  y-velocity           k       omega     time/iter
  1970  2.2755e-04  4.6443e-07  1.1825e-07  8.5554e-06  1.4623e-06  0:00:07   30
  1971  2.2447e-04  4.6482e-07  1.1822e-07  8.9275e-06  1.4865e-06  0:00:05   29
  1972  2.2774e-04  4.6546e-07  1.1846e-07  9.1304e-06  1.4865e-06  0:00:04   28
  1973  2.2856e-04  4.6560e-07  1.1878e-07  9.1844e-06  1.4654e-06  0:00:03   27
  1974  2.3002e-04  4.6581e-07  1.1863e-07  9.0239e-06  1.4328e-06  0:00:02   26
  1975  2.3223e-04  4.6506e-07  1.1905e-07  8.9090e-06  1.3967e-06  0:00:02   25
  1976  2.3210e-04  4.6517e-07  1.1925e-07  8.7287e-06  1.3923e-06  0:00:06   24
  1977  2.3136e-04  4.6572e-07  1.1777e-07  8.6652e-06  1.4629e-06  0:00:05   23
  1978  2.2970e-04  4.6492e-07  1.1752e-07  8.5746e-06  1.5083e-06  0:00:04   22
  1979  2.3003e-04  4.6381e-07  1.1770e-07  8.5831e-06  1.4620e-06  0:00:03   21
  1980  2.2966e-04  4.6350e-07  1.1745e-07  8.4291e-06  1.4463e-06  0:00:02   20

  iter  continuity  x-velocity  y-velocity           k       omega     time/iter
  1981  2.2471e-04  4.6277e-07  1.1731e-07  8.3653e-06  1.6190e-06  0:00:02   19
  1982  2.2352e-04  4.6221e-07  1.1712e-07  8.3038e-06  1.8162e-06  0:00:05   18
  1983  2.2272e-04  4.6147e-07  1.1671e-07  8.3860e-06  1.9172e-06  0:00:04   17
  1984  2.2333e-04  4.6141e-07  1.1702e-07  8.3847e-06  1.8608e-06  0:00:03   16
  1985  2.2069e-04  4.6173e-07  1.1710e-07  8.5510e-06  2.1143e-06  0:00:02   15
  1986  2.2026e-04  4.6067e-07  1.1683e-07  8.6346e-06  2.2608e-06  0:00:02   14
  1987  2.2479e-04  4.6107e-07  1.1690e-07  8.7924e-06  2.2038e-06  0:00:01   13
  1988  2.2434e-04  4.6121e-07  1.1724e-07  8.7235e-06  2.0385e-06  0:00:03   12
  1989  2.2654e-04  4.6080e-07  1.1695e-07  8.7720e-06  1.8812e-06  0:00:02   11
  1990  2.2662e-04  4.6049e-07  1.1715e-07  8.6061e-06  1.7266e-06  0:00:02   10
  1991  2.2896e-04  4.5986e-07  1.1760e-07  8.5576e-06  1.6322e-06  0:00:01    9

  iter  continuity  x-velocity  y-velocity           k       omega     time/iter
  1992  2.2924e-04  4.6033e-07  1.1744e-07  8.3896e-06  1.5568e-06  0:00:01    8
  1993  2.2955e-04  4.6001e-07  1.1729e-07  8.5398e-06  1.5030e-06  0:00:01    7
  1994  2.2804e-04  4.5935e-07  1.1710e-07  8.5080e-06  1.4720e-06  0:00:02    6
  1995  2.2677e-04  4.5936e-07  1.1690e-07  8.4431e-06  1.4024e-06  0:00:01    5
  1996  2.2754e-04  4.5921e-07  1.1634e-07  8.2579e-06  1.3324e-06  0:00:01    4
  1997  2.2235e-04  4.5832e-07  1.1521e-07  8.5480e-06  1.3353e-06  0:00:00    3
  1998  2.2326e-04  4.5802e-07  1.1626e-07  8.6830e-06  1.3577e-06  0:00:00    2
  1999  2.2084e-04  4.5805e-07  1.1639e-07  8.8803e-06  1.4171e-06  0:00:00    1
  2000  2.2111e-04  4.5786e-07  1.1654e-07  8.7578e-06  1.4769e-06  0:00:00    0

> 
adjoint/                parallel/               server/
define/                 parametric-study/       solve/
display/                plot/                   surface/
exit                    preferences/            views/
file/                   print-license-usage
mesh/                   report/

> ;create rakes
surface/rake-surface cv_inlet -0.005 -0.065 -0.005 0.065 1000

> surface/rake-surface cv_outlet 1.005 -0.065 1.005 0.065 1000

> surface/rake-surface cv_top -0.005 0.065 1.005 0.065 1000

> surface/rake-surface cv_bottom -0.005 -0.065 1.005 -0.065 1000

> surface/point-surface free-stream -15 0

> 
adjoint/                parallel/               server/
define/                 parametric-study/       solve/
display/                plot/                   surface/
exit                    preferences/            views/
file/                   print-license-usage
mesh/                   report/

> ;export data
file/export/ascii NP_CVinlet_data cv_inlet () no pressure x-velocity y-velocity dx-velocity-dx dx-velocity-dy dy-velocity-dx dy-velocity-dy q no 
Writing "NP_CVinlet_data"...

Writing information to ascii file ...
Done.

ok


Overwrite confirmations (/file/set-batch-options ...)
are on -- will therefore ignore the following journal
Error: invalid command: ok


> file/export/ascii NP_CVoutlet_data cv_outlet () no pressure x-velocity y-velocity dx-velocity-dx dx-velocity-dy dy-velocity-dx dy-velocity-dy q no 
Writing "NP_CVoutlet_data"...

Writing information to ascii file ...
Done.

ok


Overwrite confirmations (/file/set-batch-options ...)
are on -- will therefore ignore the following journal
Error: invalid command: ok


> file/export/ascii NP_CVtop_data cv_top () no pressure x-velocity y-velocity dx-velocity-dx dx-velocity-dy dy-velocity-dx dy-velocity-dy q no 
Writing "NP_CVtop_data"...

Writing information to ascii file ...
Done.

ok


Overwrite confirmations (/file/set-batch-options ...)
are on -- will therefore ignore the following journal
Error: invalid command: ok


> file/export/ascii NP_CVbottom_data cv_bottom () no pressure x-velocity y-velocity dx-velocity-dx dx-velocity-dy dy-velocity-dx dy-velocity-dy q no 
Writing "NP_CVbottom_data"...

Writing information to ascii file ...
Done.

ok


Overwrite confirmations (/file/set-batch-options ...)
are on -- will therefore ignore the following journal
Error: invalid command: ok


> file/export/ascii air_properties free-stream () no density viscosity-lam q no 
Writing "air_properties"...

Writing information to ascii file ...
Done.

ok


Overwrite confirmations (/file/set-batch-options ...)
are on -- will therefore ignore the following journal
Error: invalid command: ok


> 
adjoint/                parallel/               server/
define/                 parametric-study/       solve/
display/                plot/                   surface/
exit                    preferences/            views/
file/                   print-license-usage
mesh/                   report/

> ;flag file to know when simulation is over
file/export/ascii flag_file free-stream () no pressure q no 
Writing "flag_file"...

Writing information to ascii file ...
Done.

ok


Overwrite confirmations (/file/set-batch-options ...)
are on -- will therefore ignore the following journal
Error: invalid command: ok


> /exit ok

Posting ANSYS Product Improvement Program performance data 
Done.
Auto-Transcript Stop Time:  20:53:12, 20 Jul 2025 GMT Summer Time 
Total Transcript Time: 8 Minute 10 Second.
