Auto-Transcript Start Time:  18:39:30, 12 Aug 2025 GMT Summer Time 
Current Directory: "C:\Users\V.Chepuri\OneDrive - Cranfield University\irp\pablo\re_200000\AOA_10"

              Welcome to ANSYS Fluent 2024 R2

              Copyright 1987-2024 ANSYS, Inc. All Rights Reserved.
              Unauthorized use, distribution or duplication is prohibited.
              This product is subject to U.S. laws governing export and re-export.
              For full Legal Notice, see documentation.

Build Time: May 13 2024 11:17:42 EST  Build Id: 10192  
 
Connected License Server List:	1055@cclic-2.central.cranfield.ac.uk

*********************************************
Info: Your license enables 4-way parallel execution.
For faster simulations, please start the application with the appropriate parallel options.
*********************************************


     --------------------------------------------------------------
     This is an academic version of ANSYS FLUENT. Usage of this product
     license is limited to the terms and conditions specified in your ANSYS
     license form, additional terms section.
     --------------------------------------------------------------
Host spawning Node 0 on machine "37PCL051" (win64).

-------------------------------------------------------------------------------
ID    Hostname  Core  O.S.         PID    Vendor                          
-------------------------------------------------------------------------------
n0    37PCL051  1/28  Windows-x64  9752   Intel(R) Core(TM) i7-14700      
host  37PCL051        Windows-x64  17204  Intel(R) Core(TM) i7-14700      

MPI Option Selected: intel
-------------------------------------------------------------------------------

Cleanup script file is C:\\Users\\V.Chepuri\\OneDrive - Cranfield University\\irp\\pablo\\re_200000\\AOA_10\\cleanup-fluent-37PCL051-17204.bat

Posting ANSYS Product Improvement Program startup data
Done.

> (cx-gui-do cx-activate-item "Key Behavioral Changes*PanelButtons*PushButton1(OK)")
(cx-gui-do cx-activate-item "MenuBar*ReadSubMenu*Case...")
(cx-gui-do cx-set-file-dialog-entries "Select File" '( "template_medium.cas.h5") "CFF Case Files (*.cas.h5 *.msh.h5 *.MSH.h5 )")
Fast-loading "C:\PROGRA~1\ANSYSI~1\v242\fluent\fluent24.2.0\\addons\afd\lib\hdfio.bin"
Done.
Note: Rank = 0: Process affinity not being set (6).

Reading from 37PCL051:"C:/Users/V.Chepuri/OneDrive - Cranfield University/irp/pablo/re_200000/AOA_10/template_medium.cas.h5" in NODE0 mode ...
  Reading mesh ...
      181070 cells,     4 cell zones ...
          36824 mixed cells,  zone id: 2
         108032 mixed cells,  zone id: 4
          27008 mixed cells,  zone id: 12
           9206 mixed cells,  zone id: 11
      309160 faces,    14 face zones ...
          65137 2D interior faces,  zone id: 3
         181145 2D interior faces,  zone id: 5
             42 2D velocity-inlet faces,  zone id: 6
             38 2D pressure-outlet faces,  zone id: 7
             40 2D velocity-inlet faces,  zone id: 8
            458 2D interior faces,  zone id: 9
            456 2D interior faces,  zone id: 10
            228 2D parent-face faces,  zone id: 19
            229 2D parent-face faces,  zone id: 18
             20 2D parent-face faces,  zone id: 17
             19 2D parent-face faces,  zone id: 16
             21 2D parent-face faces,  zone id: 15
          45157 2D parent-face faces,  zone id: 14
          16170 2D parent-face faces,  zone id: 13
      102461 nodes,     1 node zone  ...
  Done.


Building...
     mesh
     materials,
     interface,
     domains,
	mixture
     zones,
	outlet
	inlet
	interior-fluid
	interior-porous
	symmetry
	upper
	lower
	fluid
	porous
WARNING: "Smooth" contours can't be displayed when node-values is set to off. Changing the Coloring type to "Banded".
     parallel,
Done.
(cx-use-window-id 51)
(handle-key "??")
(cx-use-window-id 51)
(cx-gui-do cx-activate-item "ToolBar*Mesh Display*fl_mesh_svg_graphics_toolbar")
(cx-gui-do cx-activate-item "Mesh Display*PanelButtons*PushButton1(OK)")
(cx-gui-do cx-activate-item "Mesh Display*PanelButtons*PushButton2(Cancel)")
(cx-use-window-id 51)
(dolly-camera 0.679757 -1.65467 0)
(cx-use-window-id 51)
(handle-key "control ??")
(cx-use-window-id 51)
(dolly-camera 0.245603 0.487866 0)
(cx-use-window-id 51)
(handle-key "control ??")
(cx-use-window-id 51)
(dolly-camera 0.0084978 -0.0425531 0)
(cx-gui-do cx-set-list-tree-selections "NavigationPane*Frame2*Table1*List_Tree2" (list "Setup|Boundary Conditions|Inlet|inlet (velocity-inlet, id=6)"))
(cx-gui-do cx-set-list-tree-selections "NavigationPane*Frame2*Table1*List_Tree2" (list "Setup|Boundary Conditions|Inlet|inlet (velocity-inlet, id=6)"))
(cx-gui-do cx-activate-item "NavigationPane*Frame2*Table1*List_Tree2")
(cx-gui-do cx-set-list-tree-selections "NavigationPane*Frame2*Table1*List_Tree2" (list "Setup|Boundary Conditions|Inlet|inlet (velocity-inlet, id=6)"))
(cx-gui-do cx-activate-tab-index "Velocity Inlet*Frame2*Frame2" 0)
(cx-gui-do cx-activate-tab-index "Velocity Inlet*Frame2*Frame2" 1)
(cx-gui-do cx-activate-tab-index "Velocity Inlet*Frame2*Frame2" 0)
(cx-gui-do cx-activate-tab-index "Velocity Inlet*Frame2*Frame2" 2)
(cx-gui-do cx-activate-tab-index "Velocity Inlet*Frame2*Frame2" 0)
(cx-gui-do cx-activate-tab-index "Velocity Inlet*Frame2*Frame2" 3)
(cx-gui-do cx-activate-tab-index "Velocity Inlet*Frame2*Frame2" 0)
(cx-gui-do cx-activate-tab-index "Velocity Inlet*Frame2*Frame2" 4)
(cx-gui-do cx-activate-tab-index "Velocity Inlet*Frame2*Frame2" 0)
(cx-gui-do cx-activate-tab-index "Velocity Inlet*Frame2*Frame2" 5)
(cx-gui-do cx-activate-tab-index "Velocity Inlet*Frame2*Frame2" 0)
(cx-gui-do cx-activate-tab-index "Velocity Inlet*Frame2*Frame2" 6)
(cx-gui-do cx-activate-tab-index "Velocity Inlet*Frame2*Frame2" 0)
(cx-gui-do cx-activate-tab-index "Velocity Inlet*Frame2*Frame2" 7)
(cx-gui-do cx-activate-tab-index "Velocity Inlet*Frame2*Frame2" 0)
(cx-gui-do cx-activate-tab-index "Velocity Inlet*Frame2*Frame2" 8)
(cx-gui-do cx-activate-tab-index "Velocity Inlet*Frame2*Frame2" 0)
(cx-gui-do cx-set-expression-entry "Velocity Inlet*Frame2*Frame2*Frame1(Momentum)*Table1*Table17*ExpressionEntry1(X-Velocity)" '("0.9976" . 0))
(cx-gui-do cx-enable-apply-button "Velocity Inlet")
(cx-gui-do cx-set-expression-entry "Velocity Inlet*Frame2*Frame2*Frame1(Momentum)*Table1*Table18*ExpressionEntry1(Y-Velocity)" '("0.173648178" . 0))
(cx-gui-do cx-activate-item "Velocity Inlet*PanelButtons*PushButton2(Cancel)")
(cx-gui-do cx-activate-item "MenuBar*ReadSubMenu*Case...")
(cx-gui-do cx-set-file-dialog-entries "Select File" '( "template_medium.cas.h5") "CFF Case Files (*.cas.h5 *.msh.h5 *.MSH.h5 )")
Note: Rank = 0: Process affinity not being set (6).

       Clearing partially read grid.

Reading from 37PCL051:"C:/Users/V.Chepuri/OneDrive - Cranfield University/irp/pablo/re_200000/AOA_10/template_medium.cas.h5" in NODE0 mode ...
  Reading mesh ...
      181070 cells,     4 cell zones ...
          36824 mixed cells,  zone id: 2
         108032 mixed cells,  zone id: 4
          27008 mixed cells,  zone id: 12
           9206 mixed cells,  zone id: 11
      309160 faces,    14 face zones ...
          65137 2D interior faces,  zone id: 3
         181145 2D interior faces,  zone id: 5
             42 2D velocity-inlet faces,  zone id: 6
             38 2D pressure-outlet faces,  zone id: 7
             40 2D velocity-inlet faces,  zone id: 8
            458 2D interior faces,  zone id: 9
            456 2D interior faces,  zone id: 10
            228 2D parent-face faces,  zone id: 19
            229 2D parent-face faces,  zone id: 18
             20 2D parent-face faces,  zone id: 17
             19 2D parent-face faces,  zone id: 16
             21 2D parent-face faces,  zone id: 15
          45157 2D parent-face faces,  zone id: 14
          16170 2D parent-face faces,  zone id: 13
      102461 nodes,     1 node zone  ...
  Done.


Building...
     mesh
     materials,
     interface,
     domains,
	mixture
     zones,
	outlet
	inlet
	interior-fluid
	interior-porous
	symmetry
	upper
	lower
	fluid
	porous
WARNING: "Smooth" contours can't be displayed when node-values is set to off. Changing the Coloring type to "Banded".
     parallel,
Done.
(cx-gui-do cx-activate-item "ToolBar*Mesh Display*fl_mesh_svg_graphics_toolbar")
(cx-gui-do cx-activate-item "Mesh Display*PanelButtons*PushButton1(OK)")
(cx-gui-do cx-activate-item "Mesh Display*PanelButtons*PushButton2(Cancel)")
(cx-gui-do cx-set-list-tree-selections "NavigationPane*Frame2*Table1*List_Tree2" (list ))
(cx-gui-do cx-set-list-tree-selections "NavigationPane*Frame2*Table1*List_Tree2" (list "Setup|Boundary Conditions|Inlet|inlet (velocity-inlet, id=6)"))
(cx-gui-do cx-set-list-tree-selections "NavigationPane*Frame2*Table1*List_Tree2" (list "Setup|Boundary Conditions|Inlet|inlet (velocity-inlet, id=6)"))
(cx-gui-do cx-activate-item "NavigationPane*Frame2*Table1*List_Tree2")
(cx-gui-do cx-set-list-tree-selections "NavigationPane*Frame2*Table1*List_Tree2" (list "Setup|Boundary Conditions|Inlet|inlet (velocity-inlet, id=6)"))
(cx-gui-do cx-activate-tab-index "Velocity Inlet*Frame2*Frame2" 0)
(cx-gui-do cx-activate-tab-index "Velocity Inlet*Frame2*Frame2" 1)
(cx-gui-do cx-activate-tab-index "Velocity Inlet*Frame2*Frame2" 0)
(cx-gui-do cx-activate-tab-index "Velocity Inlet*Frame2*Frame2" 2)
(cx-gui-do cx-activate-tab-index "Velocity Inlet*Frame2*Frame2" 0)
(cx-gui-do cx-activate-tab-index "Velocity Inlet*Frame2*Frame2" 3)
(cx-gui-do cx-activate-tab-index "Velocity Inlet*Frame2*Frame2" 0)
(cx-gui-do cx-activate-tab-index "Velocity Inlet*Frame2*Frame2" 4)
(cx-gui-do cx-activate-tab-index "Velocity Inlet*Frame2*Frame2" 0)
(cx-gui-do cx-activate-tab-index "Velocity Inlet*Frame2*Frame2" 5)
(cx-gui-do cx-activate-tab-index "Velocity Inlet*Frame2*Frame2" 0)
(cx-gui-do cx-activate-tab-index "Velocity Inlet*Frame2*Frame2" 6)
(cx-gui-do cx-activate-tab-index "Velocity Inlet*Frame2*Frame2" 0)
(cx-gui-do cx-activate-tab-index "Velocity Inlet*Frame2*Frame2" 7)
(cx-gui-do cx-activate-tab-index "Velocity Inlet*Frame2*Frame2" 0)
(cx-gui-do cx-activate-tab-index "Velocity Inlet*Frame2*Frame2" 8)
(cx-gui-do cx-activate-tab-index "Velocity Inlet*Frame2*Frame2" 0)
(cx-gui-do cx-enable-apply-button "Velocity Inlet")
(cx-gui-do cx-set-expression-entry "Velocity Inlet*Frame2*Frame2*Frame1(Momentum)*Table1*Table17*ExpressionEntry1(X-Velocity)" '("0.984807753" . 0))
(cx-gui-do cx-set-expression-entry "Velocity Inlet*Frame2*Frame2*Frame1(Momentum)*Table1*Table18*ExpressionEntry1(Y-Velocity)" '("0.173648178" . 0))
(cx-gui-do cx-activate-item "Velocity Inlet*PanelButtons*PushButton2(Cancel)")
(cx-gui-do cx-set-list-tree-selections "NavigationPane*Frame2*Table1*List_Tree2" (list "Setup|Boundary Conditions|Inlet|inlet (velocity-inlet, id=6)"))
(cx-gui-do cx-set-list-tree-selections "NavigationPane*Frame2*Table1*List_Tree2" (list "Setup|Boundary Conditions|Inlet|inlet (velocity-inlet, id=6)"))
(cx-gui-do cx-activate-item "NavigationPane*Frame2*Table1*List_Tree2")
(cx-gui-do cx-set-list-tree-selections "NavigationPane*Frame2*Table1*List_Tree2" (list "Setup|Boundary Conditions|Inlet|inlet (velocity-inlet, id=6)"))
(cx-gui-do cx-enable-apply-button "Velocity Inlet")
(cx-gui-do cx-set-expression-entry "Velocity Inlet*Frame2*Frame2*Frame1(Momentum)*Table1*Table17*ExpressionEntry1(X-Velocity)" '("0.984807753" . 0))
(cx-gui-do cx-set-expression-entry "Velocity Inlet*Frame2*Frame2*Frame1(Momentum)*Table1*Table18*ExpressionEntry1(Y-Velocity)" '("0.0698" . 0))
(cx-gui-do cx-set-expression-entry "Velocity Inlet*Frame2*Frame2*Frame1(Momentum)*Table1*Table18*ExpressionEntry1(Y-Velocity)" '("0.173648178" . 0))
(cx-gui-do cx-activate-item "Velocity Inlet*PanelButtons*PushButton1(OK)")
(cx-gui-do cx-activate-item "Velocity Inlet*PanelButtons*PushButton2(Cancel)")
(cx-gui-do cx-set-list-tree-selections "NavigationPane*Frame2*Table1*List_Tree2" (list "Setup|Boundary Conditions|Inlet|symmetry (velocity-inlet, id=8)"))
(cx-gui-do cx-set-list-tree-selections "NavigationPane*Frame2*Table1*List_Tree2" (list "Setup|Boundary Conditions|Inlet|symmetry (velocity-inlet, id=8)"))
(cx-gui-do cx-activate-item "NavigationPane*Frame2*Table1*List_Tree2")
(cx-gui-do cx-set-list-tree-selections "NavigationPane*Frame2*Table1*List_Tree2" (list "Setup|Boundary Conditions|Inlet|symmetry (velocity-inlet, id=8)"))
(cx-gui-do cx-activate-tab-index "Velocity Inlet*Frame2*Frame2" 0)
(cx-gui-do cx-activate-tab-index "Velocity Inlet*Frame2*Frame2" 1)
(cx-gui-do cx-activate-tab-index "Velocity Inlet*Frame2*Frame2" 0)
(cx-gui-do cx-activate-tab-index "Velocity Inlet*Frame2*Frame2" 2)
(cx-gui-do cx-activate-tab-index "Velocity Inlet*Frame2*Frame2" 0)
(cx-gui-do cx-activate-tab-index "Velocity Inlet*Frame2*Frame2" 3)
(cx-gui-do cx-activate-tab-index "Velocity Inlet*Frame2*Frame2" 0)
(cx-gui-do cx-activate-tab-index "Velocity Inlet*Frame2*Frame2" 4)
(cx-gui-do cx-activate-tab-index "Velocity Inlet*Frame2*Frame2" 0)
(cx-gui-do cx-activate-tab-index "Velocity Inlet*Frame2*Frame2" 5)
(cx-gui-do cx-activate-tab-index "Velocity Inlet*Frame2*Frame2" 0)
(cx-gui-do cx-activate-tab-index "Velocity Inlet*Frame2*Frame2" 6)
(cx-gui-do cx-activate-tab-index "Velocity Inlet*Frame2*Frame2" 0)
(cx-gui-do cx-activate-tab-index "Velocity Inlet*Frame2*Frame2" 7)
(cx-gui-do cx-activate-tab-index "Velocity Inlet*Frame2*Frame2" 0)
(cx-gui-do cx-activate-tab-index "Velocity Inlet*Frame2*Frame2" 8)
(cx-gui-do cx-activate-tab-index "Velocity Inlet*Frame2*Frame2" 0)
(cx-gui-do cx-enable-apply-button "Velocity Inlet")
(cx-gui-do cx-set-expression-entry "Velocity Inlet*Frame2*Frame2*Frame1(Momentum)*Table1*Table18*ExpressionEntry1(Y-Velocity)" '("0.173648178" . 0))
(cx-gui-do cx-set-expression-entry "Velocity Inlet*Frame2*Frame2*Frame1(Momentum)*Table1*Table17*ExpressionEntry1(X-Velocity)" '("0.984807753" . 0))
(cx-gui-do cx-activate-item "Velocity Inlet*PanelButtons*PushButton1(OK)")
(cx-gui-do cx-activate-item "Velocity Inlet*PanelButtons*PushButton1(OK)")
(cx-gui-do cx-activate-item "Velocity Inlet*PanelButtons*PushButton1(OK)")
(cx-gui-do cx-activate-item "Velocity Inlet*PanelButtons*PushButton2(Cancel)")
(cx-gui-do cx-set-list-tree-selections "NavigationPane*Frame2*Table1*List_Tree2" (list "Setup|Boundary Conditions|Inlet|inlet (velocity-inlet, id=6)"))
(cx-gui-do cx-set-list-tree-selections "NavigationPane*Frame2*Table1*List_Tree2" (list "Setup|Boundary Conditions|Inlet|inlet (velocity-inlet, id=6)"))
(cx-gui-do cx-activate-item "NavigationPane*Frame2*Table1*List_Tree2")
(cx-gui-do cx-set-list-tree-selections "NavigationPane*Frame2*Table1*List_Tree2" (list "Setup|Boundary Conditions|Inlet|inlet (velocity-inlet, id=6)"))
(cx-gui-do cx-activate-item "Velocity Inlet*PanelButtons*PushButton2(Cancel)")
(cx-gui-do cx-set-list-tree-selections "NavigationPane*Frame2*Table1*List_Tree2" (list "Setup|Boundary Conditions|Inlet|symmetry (velocity-inlet, id=8)"))
(cx-gui-do cx-set-list-tree-selections "NavigationPane*Frame2*Table1*List_Tree2" (list "Setup|Boundary Conditions|Inlet|symmetry (velocity-inlet, id=8)"))
(cx-gui-do cx-activate-item "NavigationPane*Frame2*Table1*List_Tree2")
(cx-gui-do cx-set-list-tree-selections "NavigationPane*Frame2*Table1*List_Tree2" (list "Setup|Boundary Conditions|Inlet|symmetry (velocity-inlet, id=8)"))
(cx-gui-do cx-activate-item "Velocity Inlet*PanelButtons*PushButton2(Cancel)")
(cx-gui-do cx-activate-item "MenuBar*WriteSubMenu*Case...")
(cx-gui-do cx-set-file-dialog-entries "Select File" '( "template_medium.cas.h5") "CFF Case Files (*.cas.h5 )")
(cx-gui-do cx-activate-item "Question*OK")

Writing to 37PCL051:"C:/Users/V.Chepuri/OneDrive - Cranfield University/irp/pablo/re_200000/AOA_10/template_medium.cas.h5" in NODE0 mode and compression level 1 ...
Grouping cells for Laplace smoothing ...
      181070 cells,     4 zones ...
      309160 faces,    14 zones ...
      102461 nodes,     1 zone  ...
  Done.
Done.
(cx-gui-do cx-activate-item "ToolBar*Mesh Display*fl_mesh_svg_graphics_toolbar")
(cx-gui-do cx-activate-item "Mesh Display*PanelButtons*PushButton2(Cancel)")
(cx-gui-do cx-activate-item "MenuBar*ReadSubMenu*Journal...")

Reading journal file C:/Users/V.Chepuri/OneDrive - Cranfield University/irp/pablo/re_200000/AOA_10/template.jou...

> ;change to correct dir

file/read-case template_medium.cas.h5 Note: Rank = 0: Process affinity not being set (6).

       Clearing partially read grid.

Reading from 37PCL051:"C:\Users\V.Chepuri\OneDrive - Cranfield University\irp\pablo\re_200000\AOA_10\template_medium.cas.h5" in NODE0 mode ...
  Reading mesh ...
      181070 cells,     4 cell zones ...
          36824 mixed cells,  zone id: 2
         108032 mixed cells,  zone id: 4
          27008 mixed cells,  zone id: 12
           9206 mixed cells,  zone id: 11
      309160 faces,    14 face zones ...
          65137 2D interior faces,  zone id: 3
         181145 2D interior faces,  zone id: 5
             42 2D velocity-inlet faces,  zone id: 6
             38 2D pressure-outlet faces,  zone id: 7
             40 2D velocity-inlet faces,  zone id: 8
            458 2D interior faces,  zone id: 9
            456 2D interior faces,  zone id: 10
            228 2D parent-face faces,  zone id: 19
            229 2D parent-face faces,  zone id: 18
             20 2D parent-face faces,  zone id: 17
             19 2D parent-face faces,  zone id: 16
             21 2D parent-face faces,  zone id: 15
          45157 2D parent-face faces,  zone id: 14
          16170 2D parent-face faces,  zone id: 13
      102461 nodes,     1 node zone  ...
  Done.


Building...
     mesh
     materials,
     interface,
     domains,
	mixture
     zones,
	outlet
	inlet
	interior-fluid
	interior-porous
	symmetry
	upper
	lower
	fluid
	porous
WARNING: "Smooth" contours can't be displayed when node-values is set to off. Changing the Coloring type to "Banded".
     parallel,
Done.
OK


Overwrite confirmations (/file/set-batch-options ...)
are on -- will therefore ignore the following journal
Error: invalid command: OK


> 
adjoint/                parallel/               server/
define/                 parametric-study/       solve/
display/                plot/                   surface/
exit                    preferences/            views/
file/                   print-license-usage
mesh/                   report/

> ;modify permeability parameters
define/named-expressions/edit a definition " 0.0 " q q q

> define/named-expressions/edit b definition " 0.0 " q q q

> define/named-expressions/edit c definition " 0.0 " q q q

> define/named-expressions/edit d definition " 0.0 " q q q

> define/named-expressions/edit e1 definition " -5.0 " q q q

> define/named-expressions/edit a2 definition " 0.0 " q q q

> define/named-expressions/edit b2 definition " 0.0 " q q q

> define/named-expressions/edit c2 definition " 0.0 " q q q

> define/named-expressions/edit d2 definition " 0.0 " q q q

> define/named-expressions/edit e2 definition " -5.0 " q q q

> 
adjoint/                parallel/               server/
define/                 parametric-study/       solve/
display/                plot/                   surface/
exit                    preferences/            views/
file/                   print-license-usage
mesh/                   report/

> ;run simulation
solve/initialize/hyb-initialization 
Initialize using the hybrid initialization method.

Checking case topology... 
-This case has both inlets & outlets 
-Pressure information is not available at the boundaries.
 Case will be initialized with constant pressure

	iter		scalar-0

	1		1.000000e+00
	2		1.287517e-05
	3		9.856149e-07
	4		3.251226e-07
	5		8.425194e-08
	6		3.514500e-08
	7		3.523889e-08
	8		3.256254e-08
	9		3.831529e-08
	10		3.928095e-08

Hybrid initialization is done.


> solve/iterate 2000

  iter  continuity  x-velocity  y-velocity           k       omega     time/iter
     1  1.0000e+00  1.0218e-03  8.1670e-03  5.2581e-01  3.1179e-01  0:00:00 1999
     2  1.0000e+00  1.3564e-03  4.1682e-03  3.5826e-01  2.6738e-01  0:00:00 1998
     3  6.8618e-01  1.0922e-03  2.4086e-03  1.9015e-01  2.1304e-01  0:00:00 1997
     4  4.4339e-01  9.0333e-04  1.5346e-03  9.2825e-02  1.5714e-01  0:33:16 1996
     5  3.3741e-01  7.3189e-04  1.1234e-03  5.0562e-02  1.1012e-01  0:26:36 1995
     6  3.3264e-01  6.0365e-04  9.6267e-04  3.3120e-02  7.5654e-02  0:21:16 1994
     7  2.9114e-01  5.0972e-04  8.2865e-04  2.4467e-02  5.3047e-02  0:17:00 1993
     8  2.3912e-01  4.4869e-04  7.2851e-04  1.9267e-02  3.8637e-02  0:13:36 1992
     9  1.8743e-01  4.0811e-04  6.4098e-04  1.5743e-02  2.9363e-02  0:17:31 1991
    10  1.4557e-01  3.7661e-04  5.7775e-04  1.3288e-02  2.3205e-02  0:14:00 1990
    11  1.1242e-01  3.5063e-04  5.2699e-04  1.1571e-02  1.8936e-02  0:11:12 1989

  iter  continuity  x-velocity  y-velocity           k       omega     time/iter
    12  8.6754e-02  3.2973e-04  4.8867e-04  1.0265e-02  1.5865e-02  0:08:57 1988
    13  6.8783e-02  3.1051e-04  4.5587e-04  9.1474e-03  1.3392e-02  0:07:09 1987
    14  5.6814e-02  2.9284e-04  4.2748e-04  8.2157e-03  1.1519e-02  0:05:43 1986
    15  4.8791e-02  2.7678e-04  4.0230e-04  7.4396e-03  1.0059e-02  0:11:12 1985
    16  4.3079e-02  2.6214e-04  3.7992e-04  6.7867e-03  8.8953e-03  0:08:57 1984
    17  3.9056e-02  2.4887e-04  3.5963e-04  6.2226e-03  7.9514e-03  0:07:09 1983
    18  3.5950e-02  2.3724e-04  3.4092e-04  5.7363e-03  7.1721e-03  0:05:43 1982
    19  3.3358e-02  2.2689e-04  3.2342e-04  5.3120e-03  6.5189e-03  0:04:35 1981
    20  3.1028e-02  2.1764e-04  3.0716e-04  4.9420e-03  5.9646e-03  0:03:40 1980
    21  2.9017e-02  2.0908e-04  2.9194e-04  4.6163e-03  5.4885e-03  0:09:31 1979
    22  2.7341e-02  2.0126e-04  2.7754e-04  4.3259e-03  5.0757e-03  0:07:37 1978

  iter  continuity  x-velocity  y-velocity           k       omega     time/iter
    23  2.5742e-02  1.9416e-04  2.6405e-04  4.0679e-03  4.7145e-03  0:06:05 1977
    24  2.4629e-02  1.8772e-04  2.5113e-04  3.8362e-03  4.3960e-03  0:04:52 1976
    25  2.3596e-02  1.8178e-04  2.3899e-04  3.6278e-03  4.1131e-03  0:03:54 1975
    26  2.2731e-02  1.7647e-04  2.2736e-04  3.4400e-03  3.8607e-03  0:03:07 1974
    27  2.1870e-02  1.7147e-04  2.1642e-04  3.2693e-03  3.6341e-03  0:09:04 1973
    28  2.1301e-02  1.6694e-04  2.0594e-04  3.1142e-03  3.4300e-03  0:07:15 1972
    29  2.0547e-02  1.6267e-04  1.9611e-04  2.9734e-03  3.2454e-03  0:05:48 1971
    30  1.9919e-02  1.5886e-04  1.8679e-04  2.8446e-03  3.0777e-03  0:04:38 1970
    31  1.9405e-02  1.5549e-04  1.7798e-04  2.7264e-03  2.9249e-03  0:03:42 1969
    32  1.8934e-02  1.5226e-04  1.6961e-04  2.6167e-03  2.7853e-03  0:02:58 1968
    33  1.8473e-02  1.4921e-04  1.6180e-04  2.5153e-03  2.6574e-03  0:08:56 1967

  iter  continuity  x-velocity  y-velocity           k       omega     time/iter
    34  1.7908e-02  1.4654e-04  1.5422e-04  2.4210e-03  2.5398e-03  0:07:08 1966
    35  1.7471e-02  1.4406e-04  1.4714e-04  2.3333e-03  2.4315e-03  0:05:42 1965
    36  1.7107e-02  1.4165e-04  1.4040e-04  2.2520e-03  2.3313e-03  0:04:34 1964
    37  1.6681e-02  1.3935e-04  1.3402e-04  2.1762e-03  2.2384e-03  0:03:39 1963
    38  1.6507e-02  1.3733e-04  1.2789e-04  2.1054e-03  2.1520e-03  0:09:27 1962
    39  1.6206e-02  1.3546e-04  1.2218e-04  2.0391e-03  2.0714e-03  0:07:34 1961
    40  1.6111e-02  1.3339e-04  1.1690e-04  1.9772e-03  1.9962e-03  0:06:03 1960
    41  1.5861e-02  1.3213e-04  1.1151e-04  1.9195e-03  1.9257e-03  0:04:50 1959
    42  1.5869e-02  1.3037e-04  1.0684e-04  1.8651e-03  1.8594e-03  0:03:52 1958
    43  1.5740e-02  1.2919e-04  1.0195e-04  1.8140e-03  1.7972e-03  0:03:05 1957
    44  1.5616e-02  1.2746e-04  9.7753e-05  1.7657e-03  1.7386e-03  0:08:59 1956

  iter  continuity  x-velocity  y-velocity           k       omega     time/iter
    45  1.5562e-02  1.2605e-04  9.3544e-05  1.7204e-03  1.6832e-03  0:07:11 1955
    46  1.5455e-02  1.2528e-04  8.9248e-05  1.6775e-03  1.6309e-03  0:05:45 1954
    47  1.5454e-02  1.2372e-04  8.5780e-05  1.6371e-03  1.5814e-03  0:04:36 1953
    48  1.5463e-02  1.2255e-04  8.2203e-05  1.5985e-03  1.5345e-03  0:03:41 1952
    49  1.5448e-02  1.2157e-04  7.8744e-05  1.5622e-03  1.4900e-03  0:02:56 1951
    50  1.5421e-02  1.2045e-04  7.5576e-05  1.5283e-03  1.4476e-03  0:08:51 1950
    51  1.5413e-02  1.1941e-04  7.2573e-05  1.4964e-03  1.4074e-03  0:07:05 1949
    52  1.5426e-02  1.1833e-04  6.9741e-05  1.4658e-03  1.3690e-03  0:05:39 1948
    53  1.5411e-02  1.1711e-04  6.7077e-05  1.4366e-03  1.3323e-03  0:04:31 1947
    54  1.5438e-02  1.1614e-04  6.4599e-05  1.4091e-03  1.2974e-03  0:03:37 1946
    55  1.5407e-02  1.1506e-04  6.2207e-05  1.3827e-03  1.2640e-03  0:02:54 1945

  iter  continuity  x-velocity  y-velocity           k       omega     time/iter
    56  1.5245e-02  1.1396e-04  5.9968e-05  1.3574e-03  1.2322e-03  0:08:48 1944
    57  1.5229e-02  1.1289e-04  5.7850e-05  1.3338e-03  1.2016e-03  0:07:02 1943
    58  1.5162e-02  1.1185e-04  5.5884e-05  1.3108e-03  1.1723e-03  0:05:37 1942
    59  1.5211e-02  1.1076e-04  5.3999e-05  1.2887e-03  1.1442e-03  0:04:30 1941
    60  1.5132e-02  1.0974e-04  5.2222e-05  1.2674e-03  1.1172e-03  0:03:36 1940
    61  1.5001e-02  1.0861e-04  5.0534e-05  1.2472e-03  1.0913e-03  0:02:52 1939
    62  1.5021e-02  1.0758e-04  4.8930e-05  1.2270e-03  1.0664e-03  0:08:45 1938
    63  1.5118e-02  1.0654e-04  4.7406e-05  1.2080e-03  1.0424e-03  0:07:00 1937
    64  1.5272e-02  1.0549e-04  4.5962e-05  1.1899e-03  1.0193e-03  0:05:36 1936
    65  1.5400e-02  1.0455e-04  4.4615e-05  1.1721e-03  9.9689e-04  0:04:29 1935
    66  1.5500e-02  1.0362e-04  4.3343e-05  1.1544e-03  9.7524e-04  0:03:35 1934

  iter  continuity  x-velocity  y-velocity           k       omega     time/iter
    67  1.5539e-02  1.0257e-04  4.2105e-05  1.1380e-03  9.5432e-04  0:02:52 1933
    68  1.5552e-02  1.0162e-04  4.0926e-05  1.1219e-03  9.3427e-04  0:08:44 1932
    69  1.5546e-02  1.0072e-04  3.9875e-05  1.1063e-03  9.1490e-04  0:06:59 1931
    70  1.5652e-02  9.9896e-05  3.8904e-05  1.0908e-03  8.9618e-04  0:05:35 1930
    71  1.5694e-02  9.9117e-05  3.8025e-05  1.0757e-03  8.7806e-04  0:04:28 1929
    72  1.5730e-02  9.8329e-05  3.7195e-05  1.0607e-03  8.6058e-04  0:03:34 1928
    73  1.5799e-02  9.7522e-05  3.6372e-05  1.0464e-03  8.4367e-04  0:02:51 1927
    74  1.5752e-02  9.6786e-05  3.5605e-05  1.0326e-03  8.2721e-04  0:02:17 1926
    75  1.5640e-02  9.6034e-05  3.4905e-05  1.0194e-03  8.1120e-04  0:08:14 1925
    76  1.5513e-02  9.5253e-05  3.4289e-05  1.0064e-03  7.9573e-04  0:06:35 1924
    77  1.5406e-02  9.4519e-05  3.3706e-05  9.9322e-04  7.8093e-04  0:05:16 1923

  iter  continuity  x-velocity  y-velocity           k       omega     time/iter
    78  1.5271e-02  9.3765e-05  3.3158e-05  9.8027e-04  7.6663e-04  0:04:13 1922
    79  1.5170e-02  9.3011e-05  3.2667e-05  9.6789e-04  7.5294e-04  0:03:22 1921
    80  1.5166e-02  9.2345e-05  3.2227e-05  9.5579e-04  7.3971e-04  0:09:06 1920
    81  1.5150e-02  9.1702e-05  3.1776e-05  9.4402e-04  7.2684e-04  0:07:16 1919
    82  1.5169e-02  9.1127e-05  3.1348e-05  9.3254e-04  7.1444e-04  0:05:49 1918
    83  1.5061e-02  9.0510e-05  3.0952e-05  9.2145e-04  7.0245e-04  0:04:39 1917
    84  1.5057e-02  8.9985e-05  3.0610e-05  9.1055e-04  6.9088e-04  0:03:43 1916
    85  1.5074e-02  8.9493e-05  3.0291e-05  8.9992e-04  6.7974e-04  0:09:21 1915
    86  1.4959e-02  8.8886e-05  3.0012e-05  8.8949e-04  6.6889e-04  0:07:29 1914
    87  1.4900e-02  8.8289e-05  2.9741e-05  8.7944e-04  6.5843e-04  0:05:59 1913
    88  1.4912e-02  8.7724e-05  2.9430e-05  8.6953e-04  6.4829e-04  0:04:47 1912

  iter  continuity  x-velocity  y-velocity           k       omega     time/iter
    89  1.4896e-02  8.7198e-05  2.9147e-05  8.5979e-04  6.3842e-04  0:03:49 1911
    90  1.4872e-02  8.6722e-05  2.8881e-05  8.5032e-04  6.2892e-04  0:03:03 1910
    91  1.4810e-02  8.6204e-05  2.8639e-05  8.4134e-04  6.1971e-04  0:02:27 1909
    92  1.4755e-02  8.5713e-05  2.8386e-05  8.3226e-04  6.1071e-04  0:08:19 1908
    93  1.4654e-02  8.5181e-05  2.8158e-05  8.2349e-04  6.0197e-04  0:06:39 1907
    94  1.4569e-02  8.4685e-05  2.7939e-05  8.1535e-04  5.9348e-04  0:05:19 1906
    95  1.4573e-02  8.4191e-05  2.7722e-05  8.0734e-04  5.8519e-04  0:04:15 1905
    96  1.4506e-02  8.3634e-05  2.7504e-05  7.9935e-04  5.7703e-04  0:03:24 1904
    97  1.4480e-02  8.3094e-05  2.7298e-05  7.9210e-04  5.6907e-04  0:02:43 1903
    98  1.4400e-02  8.2504e-05  2.7096e-05  7.8522e-04  5.6132e-04  0:08:31 1902
    99  1.4303e-02  8.1937e-05  2.6919e-05  7.7856e-04  5.5371e-04  0:06:48 1901

  iter  continuity  x-velocity  y-velocity           k       omega     time/iter
   100  1.4290e-02  8.1386e-05  2.6698e-05  7.7203e-04  5.4623e-04  0:05:27 1900
   101  1.4251e-02  8.0841e-05  2.6481e-05  7.6583e-04  5.3888e-04  0:04:21 1899
   102  1.4205e-02  8.0298e-05  2.6236e-05  7.5982e-04  5.3171e-04  0:03:29 1898
   103  1.4132e-02  7.9757e-05  2.6014e-05  7.5417e-04  5.2473e-04  0:02:47 1897
   104  1.3965e-02  7.9223e-05  2.5790e-05  7.4893e-04  5.1782e-04  0:08:33 1896
   105  1.3857e-02  7.8717e-05  2.5557e-05  7.4398e-04  5.1111e-04  0:06:50 1895
   106  1.3677e-02  7.8146e-05  2.5323e-05  7.3962e-04  5.0450e-04  0:05:28 1894
   107  1.3511e-02  7.7559e-05  2.5118e-05  7.3574e-04  4.9804e-04  0:04:22 1893
   108  1.3364e-02  7.7038e-05  2.4870e-05  7.3173e-04  4.9176e-04  0:03:30 1892
   109  1.3267e-02  7.6531e-05  2.4629e-05  7.2792e-04  4.8562e-04  0:02:48 1891
   110  1.3177e-02  7.5954e-05  2.4400e-05  7.2468e-04  4.7972e-04  0:02:14 1890

  iter  continuity  x-velocity  y-velocity           k       omega     time/iter
   111  1.3017e-02  7.5388e-05  2.4185e-05  7.2180e-04  4.7398e-04  0:08:05 1889
   112  1.2976e-02  7.4860e-05  2.3978e-05  7.1913e-04  4.6837e-04  0:06:28 1888
   113  1.2902e-02  7.4271e-05  2.3776e-05  7.1715e-04  4.6292e-04  0:05:10 1887
   114  1.2826e-02  7.3723e-05  2.3552e-05  7.1520e-04  4.5761e-04  0:04:08 1886
   115  1.2739e-02  7.3158e-05  2.3314e-05  7.1328e-04  4.5245e-04  0:03:18 1885
   116  1.2565e-02  7.2546e-05  2.3090e-05  7.1207e-04  4.4743e-04  0:08:55 1884
   117  1.2386e-02  7.1920e-05  2.2870e-05  7.1129e-04  4.4251e-04  0:07:08 1883
   118  1.2184e-02  7.1308e-05  2.2642e-05  7.1065e-04  4.3772e-04  0:05:42 1882
   119  1.2058e-02  7.0797e-05  2.2426e-05  7.1048e-04  4.3311e-04  0:04:34 1881
   120  1.1942e-02  7.0278e-05  2.2224e-05  7.1032e-04  4.2867e-04  0:03:39 1880
   121  1.1791e-02  6.9755e-05  2.2015e-05  7.1042e-04  4.2439e-04  0:02:55 1879

  iter  continuity  x-velocity  y-velocity           k       omega     time/iter
   122  1.1669e-02  6.9291e-05  2.1804e-05  7.1085e-04  4.2024e-04  0:02:20 1878
   123  1.1566e-02  6.8813e-05  2.1595e-05  7.1145e-04  4.1624e-04  0:08:07 1877
   124  1.1523e-02  6.8336e-05  2.1382e-05  7.1239e-04  4.1232e-04  0:06:30 1876
   125  1.1453e-02  6.7875e-05  2.1175e-05  7.1337e-04  4.0849e-04  0:05:12 1875
   126  1.1322e-02  6.7382e-05  2.0994e-05  7.1471e-04  4.0473e-04  0:04:09 1874
   127  1.1154e-02  6.6914e-05  2.0790e-05  7.1617e-04  4.0107e-04  0:09:34 1873
   128  1.1082e-02  6.6435e-05  2.0581e-05  7.1792e-04  3.9754e-04  0:07:39 1872
   129  1.1014e-02  6.5948e-05  2.0386e-05  7.2024e-04  3.9412e-04  0:06:07 1871
   130  1.0888e-02  6.5470e-05  2.0201e-05  7.2295e-04  3.9080e-04  0:04:53 1870
   131  1.0800e-02  6.5013e-05  2.0011e-05  7.2564e-04  3.8756e-04  0:03:55 1869
   132  1.0636e-02  6.4526e-05  1.9843e-05  7.2841e-04  3.8439e-04  0:03:08 1868

  iter  continuity  x-velocity  y-velocity           k       omega     time/iter
   133  1.0478e-02  6.4025e-05  1.9654e-05  7.3152e-04  3.8124e-04  0:02:30 1867
   134  1.0344e-02  6.3542e-05  1.9458e-05  7.3527e-04  3.7820e-04  0:08:13 1866
   135  1.0260e-02  6.3085e-05  1.9272e-05  7.3885e-04  3.7524e-04  0:06:34 1865
   136  1.0186e-02  6.2664e-05  1.9082e-05  7.4242e-04  3.7236e-04  0:05:15 1864
   137  1.0028e-02  6.2253e-05  1.8888e-05  7.4581e-04  3.6944e-04  0:04:12 1863
   138  9.8932e-03  6.1854e-05  1.8701e-05  7.4969e-04  3.6655e-04  0:03:22 1862
   139  9.8086e-03  6.1445e-05  1.8523e-05  7.5374e-04  3.6374e-04  0:02:41 1861
   140  9.7228e-03  6.1042e-05  1.8348e-05  7.5807e-04  3.6097e-04  0:08:21 1860
   141  9.6162e-03  6.0602e-05  1.8184e-05  7.6268e-04  3.5828e-04  0:06:40 1859
   142  9.5353e-03  6.0146e-05  1.8029e-05  7.6745e-04  3.5558e-04  0:05:20 1858
   143  9.4883e-03  5.9709e-05  1.7866e-05  7.7216e-04  3.5299e-04  0:04:16 1857

  iter  continuity  x-velocity  y-velocity           k       omega     time/iter
   144  9.4494e-03  5.9300e-05  1.7720e-05  7.7706e-04  3.5040e-04  0:03:25 1856
   145  9.4404e-03  5.8935e-05  1.7573e-05  7.8217e-04  3.4778e-04  0:02:44 1855
   146  9.3690e-03  5.8559e-05  1.7434e-05  7.8722e-04  3.4519e-04  0:08:22 1854
   147  9.2958e-03  5.8208e-05  1.7281e-05  7.9212e-04  3.4259e-04  0:06:41 1853
   148  9.2743e-03  5.7870e-05  1.7128e-05  7.9769e-04  3.4019e-04  0:05:21 1852
   149  9.2752e-03  5.7561e-05  1.6997e-05  8.0361e-04  3.3783e-04  0:04:16 1851
   150  9.2722e-03  5.7294e-05  1.6858e-05  8.0942e-04  3.3551e-04  0:03:25 1850
   151  9.2762e-03  5.7019e-05  1.6736e-05  8.1551e-04  3.3313e-04  0:02:44 1849
   152  9.2908e-03  5.6718e-05  1.6607e-05  8.2171e-04  3.3078e-04  0:02:11 1848
   153  9.2732e-03  5.6448e-05  1.6472e-05  8.2845e-04  3.2846e-04  0:07:54 1847
   154  9.2304e-03  5.6134e-05  1.6335e-05  8.3521e-04  3.2624e-04  0:06:19 1846

  iter  continuity  x-velocity  y-velocity           k       omega     time/iter
   155  9.2374e-03  5.5814e-05  1.6207e-05  8.4219e-04  3.2404e-04  0:05:03 1845
   156  9.3107e-03  5.5576e-05  1.6065e-05  8.4939e-04  3.2189e-04  0:04:02 1844
   157  9.3503e-03  5.5346e-05  1.5953e-05  8.5697e-04  3.1970e-04  0:03:14 1843
   158  9.3787e-03  5.5115e-05  1.5799e-05  8.6436e-04  3.1756e-04  0:02:35 1842
   159  9.3837e-03  5.4873e-05  1.5672e-05  8.7222e-04  3.1543e-04  0:08:12 1841
   160  9.4012e-03  5.4615e-05  1.5536e-05  8.8048e-04  3.1333e-04  0:06:33 1840
   161  9.3830e-03  5.4335e-05  1.5391e-05  8.8892e-04  3.1129e-04  0:05:15 1839
   162  9.4007e-03  5.4076e-05  1.5250e-05  8.9773e-04  3.0935e-04  0:04:12 1838
   163  9.4471e-03  5.3865e-05  1.5115e-05  9.0655e-04  3.0740e-04  0:03:21 1837
   164  9.4754e-03  5.3633e-05  1.4978e-05  9.1551e-04  3.0545e-04  0:02:41 1836
   165  9.5058e-03  5.3396e-05  1.4852e-05  9.2465e-04  3.0352e-04  0:08:16 1835

  iter  continuity  x-velocity  y-velocity           k       omega     time/iter
   166  9.6136e-03  5.3205e-05  1.4743e-05  9.3397e-04  3.0166e-04  0:06:36 1834
   167  9.7155e-03  5.3026e-05  1.4629e-05  9.4428e-04  2.9974e-04  0:05:17 1833
   168  9.7255e-03  5.2810e-05  1.4510e-05  9.5463e-04  2.9790e-04  0:04:13 1832
   169  9.7819e-03  5.2591e-05  1.4397e-05  9.6527e-04  2.9613e-04  0:03:23 1831
   170  9.8442e-03  5.2396e-05  1.4260e-05  9.7619e-04  2.9438e-04  0:02:42 1830
   171  9.9063e-03  5.2179e-05  1.4118e-05  9.8712e-04  2.9263e-04  0:02:09 1829
   172  1.0027e-02  5.1981e-05  1.3989e-05  9.9797e-04  2.9090e-04  0:07:49 1828
   173  1.0096e-02  5.1782e-05  1.3891e-05  1.0089e-03  2.8925e-04  0:06:15 1827
   174  1.0179e-02  5.1563e-05  1.3791e-05  1.0201e-03  2.8755e-04  0:05:00 1826
   175  1.0259e-02  5.1370e-05  1.3670e-05  1.0316e-03  2.8592e-04  0:04:00 1825
   176  1.0325e-02  5.1126e-05  1.3538e-05  1.0433e-03  2.8436e-04  0:09:17 1824

  iter  continuity  x-velocity  y-velocity           k       omega     time/iter
   177  1.0389e-02  5.0888e-05  1.3445e-05  1.0551e-03  2.8281e-04  0:07:25 1823
   178  1.0428e-02  5.0697e-05  1.3331e-05  1.0671e-03  2.8123e-04  0:05:56 1822
   179  1.0441e-02  5.0519e-05  1.3215e-05  1.0794e-03  2.7962e-04  0:04:44 1821
   180  1.0502e-02  5.0315e-05  1.3110e-05  1.0923e-03  2.7810e-04  0:03:47 1820
   181  1.0525e-02  5.0094e-05  1.2986e-05  1.1046e-03  2.7655e-04  0:03:02 1819
   182  1.0585e-02  4.9878e-05  1.2905e-05  1.1176e-03  2.7509e-04  0:08:29 1818
   183  1.0642e-02  4.9658e-05  1.2854e-05  1.1309e-03  2.7363e-04  0:06:47 1817
   184  1.0706e-02  4.9445e-05  1.2803e-05  1.1436e-03  2.7217e-04  0:05:25 1816
   185  1.0765e-02  4.9239e-05  1.2732e-05  1.1568e-03  2.7075e-04  0:04:20 1815
   186  1.0846e-02  4.9019e-05  1.2672e-05  1.1698e-03  2.6935e-04  0:03:28 1814
   187  1.0960e-02  4.8794e-05  1.2605e-05  1.1832e-03  2.6793e-04  0:02:46 1813

  iter  continuity  x-velocity  y-velocity           k       omega     time/iter
   188  1.1054e-02  4.8565e-05  1.2553e-05  1.1964e-03  2.6653e-04  0:02:13 1812
   189  1.1132e-02  4.8340e-05  1.2485e-05  1.2098e-03  2.6520e-04  0:07:49 1811
   190  1.1174e-02  4.8097e-05  1.2443e-05  1.2229e-03  2.6396e-04  0:06:15 1810
   191  1.1188e-02  4.7859e-05  1.2402e-05  1.2363e-03  2.6265e-04  0:05:00 1809
   192  1.1210e-02  4.7628e-05  1.2342e-05  1.2499e-03  2.6141e-04  0:03:59 1808
   193  1.1253e-02  4.7386e-05  1.2295e-05  1.2638e-03  2.6023e-04  0:03:11 1807
   194  1.1338e-02  4.7127e-05  1.2258e-05  1.2779e-03  2.5911e-04  0:02:33 1806
   195  1.1419e-02  4.6888e-05  1.2196e-05  1.2919e-03  2.5795e-04  0:08:03 1805
   196  1.1467e-02  4.6676e-05  1.2132e-05  1.3059e-03  2.5686e-04  0:06:27 1804
   197  1.1488e-02  4.6416e-05  1.2097e-05  1.3194e-03  2.5575e-04  0:05:09 1803
   198  1.1499e-02  4.6171e-05  1.2051e-05  1.3328e-03  2.5469e-04  0:04:07 1802

  iter  continuity  x-velocity  y-velocity           k       omega     time/iter
   199  1.1530e-02  4.5908e-05  1.2006e-05  1.3464e-03  2.5369e-04  0:03:18 1801
   200  1.1567e-02  4.5606e-05  1.1982e-05  1.3597e-03  2.5266e-04  0:02:38 1800
   201  1.1639e-02  4.5307e-05  1.1968e-05  1.3731e-03  2.5162e-04  0:02:06 1799
   202  1.1661e-02  4.4965e-05  1.1943e-05  1.3864e-03  2.5061e-04  0:07:41 1798
   203  1.1670e-02  4.4612e-05  1.1907e-05  1.3996e-03  2.4964e-04  0:06:08 1797
   204  1.1703e-02  4.4261e-05  1.1882e-05  1.4125e-03  2.4867e-04  0:04:54 1796
   205  1.1706e-02  4.3898e-05  1.1822e-05  1.4253e-03  2.4769e-04  0:03:55 1795
   206  1.1704e-02  4.3570e-05  1.1773e-05  1.4378e-03  2.4676e-04  0:03:08 1794
   207  1.1679e-02  4.3202e-05  1.1733e-05  1.4503e-03  2.4584e-04  0:02:31 1793
   208  1.1661e-02  4.2864e-05  1.1685e-05  1.4625e-03  2.4498e-04  0:07:59 1792
   209  1.1696e-02  4.2525e-05  1.1651e-05  1.4746e-03  2.4405e-04  0:06:23 1791

  iter  continuity  x-velocity  y-velocity           k       omega     time/iter
   210  1.1676e-02  4.2153e-05  1.1592e-05  1.4861e-03  2.4317e-04  0:05:06 1790
   211  1.1657e-02  4.1761e-05  1.1539e-05  1.4973e-03  2.4228e-04  0:04:05 1789
   212  1.1693e-02  4.1377e-05  1.1507e-05  1.5089e-03  2.4129e-04  0:03:16 1788
   213  1.1690e-02  4.0979e-05  1.1449e-05  1.5198e-03  2.4029e-04  0:02:36 1787
   214  1.1671e-02  4.0593e-05  1.1387e-05  1.5303e-03  2.3923e-04  0:08:02 1786
   215  1.1625e-02  4.0198e-05  1.1337e-05  1.5413e-03  2.3819e-04  0:06:26 1785
   216  1.1579e-02  3.9827e-05  1.1281e-05  1.5510e-03  2.3721e-04  0:05:08 1784
   217  1.1546e-02  3.9450e-05  1.1225e-05  1.5604e-03  2.3624e-04  0:04:07 1783
   218  1.1485e-02  3.9075e-05  1.1160e-05  1.5695e-03  2.3520e-04  0:03:17 1782
   219  1.1404e-02  3.8700e-05  1.1092e-05  1.5792e-03  2.3422e-04  0:08:34 1781
   220  1.1349e-02  3.8326e-05  1.0986e-05  1.5875e-03  2.3324e-04  0:06:51 1780

  iter  continuity  x-velocity  y-velocity           k       omega     time/iter
   221  1.1287e-02  3.7947e-05  1.0908e-05  1.5957e-03  2.3229e-04  0:05:28 1779
   222  1.1208e-02  3.7545e-05  1.0814e-05  1.6034e-03  2.3133e-04  0:04:23 1778
   223  1.1115e-02  3.7187e-05  1.0728e-05  1.6111e-03  2.3035e-04  0:03:30 1777
   224  1.0989e-02  3.6862e-05  1.0620e-05  1.6181e-03  2.2936e-04  0:02:48 1776
   225  1.0906e-02  3.6568e-05  1.0547e-05  1.6250e-03  2.2841e-04  0:08:09 1775
   226  1.0805e-02  3.6289e-05  1.0469e-05  1.6314e-03  2.2744e-04  0:06:31 1774
   227  1.0685e-02  3.6022e-05  1.0405e-05  1.6371e-03  2.2651e-04  0:05:13 1773
   228  1.0581e-02  3.5771e-05  1.0293e-05  1.6424e-03  2.2557e-04  0:04:10 1772
   229  1.0509e-02  3.5537e-05  1.0223e-05  1.6473e-03  2.2452e-04  0:03:20 1771
   230  1.0409e-02  3.5327e-05  1.0141e-05  1.6521e-03  2.2356e-04  0:02:40 1770
   231  1.0328e-02  3.5105e-05  1.0071e-05  1.6569e-03  2.2259e-04  0:08:02 1769

  iter  continuity  x-velocity  y-velocity           k       omega     time/iter
   232  1.0240e-02  3.4888e-05  1.0006e-05  1.6607e-03  2.2164e-04  0:06:25 1768
   233  1.0189e-02  3.4667e-05  9.9702e-06  1.6644e-03  2.2062e-04  0:05:08 1767
   234  1.0134e-02  3.4454e-05  9.9285e-06  1.6678e-03  2.1956e-04  0:04:06 1766
   235  1.0047e-02  3.4241e-05  9.8685e-06  1.6703e-03  2.1851e-04  0:03:17 1765
   236  9.9725e-03  3.4053e-05  9.8333e-06  1.6728e-03  2.1748e-04  0:02:37 1764
   237  9.9201e-03  3.3852e-05  9.7979e-06  1.6747e-03  2.1637e-04  0:07:58 1763
   238  9.8624e-03  3.3677e-05  9.7493e-06  1.6764e-03  2.1533e-04  0:06:23 1762
   239  9.7845e-03  3.3517e-05  9.6945e-06  1.6774e-03  2.1425e-04  0:05:06 1761
   240  9.7376e-03  3.3376e-05  9.6681e-06  1.6784e-03  2.1312e-04  0:04:05 1760
   241  9.6819e-03  3.3226e-05  9.6134e-06  1.6788e-03  2.1207e-04  0:03:16 1759
   242  9.6338e-03  3.3089e-05  9.5607e-06  1.6790e-03  2.1097e-04  0:02:36 1758

  iter  continuity  x-velocity  y-velocity           k       omega     time/iter
   243  9.5720e-03  3.2970e-05  9.5032e-06  1.6795e-03  2.0987e-04  0:02:05 1757
   244  9.5621e-03  3.2860e-05  9.4868e-06  1.6790e-03  2.0882e-04  0:07:31 1756
   245  9.5008e-03  3.2741e-05  9.4493e-06  1.6785e-03  2.0781e-04  0:06:01 1755
   246  9.4152e-03  3.2623e-05  9.4197e-06  1.6776e-03  2.0675e-04  0:04:48 1754
   247  9.3272e-03  3.2527e-05  9.3973e-06  1.6764e-03  2.0568e-04  0:03:51 1753
   248  9.2587e-03  3.2434e-05  9.3661e-06  1.6747e-03  2.0458e-04  0:03:04 1752
   249  9.1810e-03  3.2341e-05  9.3447e-06  1.6727e-03  2.0349e-04  0:02:27 1751
   250  9.1366e-03  3.2248e-05  9.3323e-06  1.6696e-03  2.0241e-04  0:07:48 1750
   251  9.0905e-03  3.2163e-05  9.3266e-06  1.6666e-03  2.0134e-04  0:06:14 1749
   252  9.0767e-03  3.2077e-05  9.3265e-06  1.6637e-03  2.0031e-04  0:04:59 1748
   253  9.0972e-03  3.2005e-05  9.3308e-06  1.6608e-03  1.9924e-04  0:03:59 1747

  iter  continuity  x-velocity  y-velocity           k       omega     time/iter
   254  9.0963e-03  3.1957e-05  9.2999e-06  1.6577e-03  1.9820e-04  0:03:11 1746
   255  9.1065e-03  3.1888e-05  9.2880e-06  1.6544e-03  1.9711e-04  0:02:33 1745
   256  9.1229e-03  3.1813e-05  9.2725e-06  1.6503e-03  1.9605e-04  0:07:51 1744
   257  9.1409e-03  3.1720e-05  9.2657e-06  1.6464e-03  1.9500e-04  0:06:17 1743
   258  9.1338e-03  3.1650e-05  9.2628e-06  1.6425e-03  1.9392e-04  0:05:01 1742
   259  9.1437e-03  3.1569e-05  9.2673e-06  1.6383e-03  1.9289e-04  0:04:01 1741
   260  9.1665e-03  3.1477e-05  9.2778e-06  1.6342e-03  1.9181e-04  0:03:12 1740
   261  9.1653e-03  3.1380e-05  9.2785e-06  1.6298e-03  1.9074e-04  0:02:34 1739
   262  9.1653e-03  3.1275e-05  9.2731e-06  1.6252e-03  1.8963e-04  0:02:03 1738
   263  9.1752e-03  3.1192e-05  9.2758e-06  1.6205e-03  1.8867e-04  0:07:26 1737
   264  9.1969e-03  3.1102e-05  9.2867e-06  1.6158e-03  1.8768e-04  0:05:56 1736

  iter  continuity  x-velocity  y-velocity           k       omega     time/iter
   265  9.2349e-03  3.1032e-05  9.2991e-06  1.6108e-03  1.8665e-04  0:04:45 1735
   266  9.2757e-03  3.0951e-05  9.3241e-06  1.6057e-03  1.8561e-04  0:03:48 1734
   267  9.3151e-03  3.0875e-05  9.3560e-06  1.6008e-03  1.8462e-04  0:08:49 1733
   268  9.3707e-03  3.0792e-05  9.3826e-06  1.5955e-03  1.8358e-04  0:07:03 1732
   269  9.4286e-03  3.0718e-05  9.4015e-06  1.5900e-03  1.8261e-04  0:05:38 1731
   270  9.4812e-03  3.0624e-05  9.4067e-06  1.5843e-03  1.8160e-04  0:04:30 1730
   271  9.5271e-03  3.0548e-05  9.3977e-06  1.5789e-03  1.8056e-04  0:03:36 1729
   272  9.5982e-03  3.0472e-05  9.4329e-06  1.5728e-03  1.7957e-04  0:02:53 1728
   273  9.6686e-03  3.0406e-05  9.4744e-06  1.5667e-03  1.7869e-04  0:08:04 1727
   274  9.6837e-03  3.0311e-05  9.4884e-06  1.5611e-03  1.7777e-04  0:06:27 1726
   275  9.6917e-03  3.0229e-05  9.4945e-06  1.5547e-03  1.7679e-04  0:05:09 1725

  iter  continuity  x-velocity  y-velocity           k       omega     time/iter
   276  9.6765e-03  3.0141e-05  9.5138e-06  1.5481e-03  1.7577e-04  0:04:07 1724
   277  9.6698e-03  3.0040e-05  9.5326e-06  1.5415e-03  1.7474e-04  0:03:18 1723
   278  9.6714e-03  2.9952e-05  9.5524e-06  1.5346e-03  1.7383e-04  0:02:38 1722
   279  9.6791e-03  2.9867e-05  9.5601e-06  1.5275e-03  1.7295e-04  0:02:06 1721
   280  9.6925e-03  2.9794e-05  9.5845e-06  1.5207e-03  1.7205e-04  0:07:25 1720
   281  9.7033e-03  2.9704e-05  9.5981e-06  1.5136e-03  1.7116e-04  0:05:56 1719
   282  9.6998e-03  2.9615e-05  9.6147e-06  1.5065e-03  1.7026e-04  0:04:44 1718
   283  9.6868e-03  2.9535e-05  9.6408e-06  1.4995e-03  1.6943e-04  0:03:47 1717
   284  9.6737e-03  2.9441e-05  9.6324e-06  1.4924e-03  1.6867e-04  0:03:02 1716
   285  9.6596e-03  2.9358e-05  9.6280e-06  1.4852e-03  1.6788e-04  0:02:25 1715
   286  9.6499e-03  2.9284e-05  9.6178e-06  1.4780e-03  1.6716e-04  0:07:39 1714

  iter  continuity  x-velocity  y-velocity           k       omega     time/iter
   287  9.6555e-03  2.9194e-05  9.6220e-06  1.4706e-03  1.6644e-04  0:06:07 1713
   288  9.6553e-03  2.9117e-05  9.6580e-06  1.4632e-03  1.6567e-04  0:04:53 1712
   289  9.6447e-03  2.9023e-05  9.6570e-06  1.4559e-03  1.6497e-04  0:03:55 1711
   290  9.6285e-03  2.8938e-05  9.6869e-06  1.4487e-03  1.6419e-04  0:03:08 1710
   291  9.5846e-03  2.8846e-05  9.6748e-06  1.4421e-03  1.6356e-04  0:02:30 1709
   292  9.5659e-03  2.8750e-05  9.6926e-06  1.4351e-03  1.6283e-04  0:07:42 1708
   293  9.5000e-03  2.8662e-05  9.6865e-06  1.4280e-03  1.6215e-04  0:06:09 1707
   294  9.4702e-03  2.8569e-05  9.7023e-06  1.4207e-03  1.6147e-04  0:04:55 1706
   295  9.4643e-03  2.8484e-05  9.6997e-06  1.4135e-03  1.6077e-04  0:03:56 1705
   296  9.4462e-03  2.8386e-05  9.6781e-06  1.4063e-03  1.6022e-04  0:03:09 1704
   297  9.4304e-03  2.8297e-05  9.6691e-06  1.3989e-03  1.5969e-04  0:02:31 1703

  iter  continuity  x-velocity  y-velocity           k       omega     time/iter
   298  9.3976e-03  2.8225e-05  9.6686e-06  1.3915e-03  1.5910e-04  0:07:41 1702
   299  9.3682e-03  2.8134e-05  9.6497e-06  1.3850e-03  1.5847e-04  0:06:09 1701
   300  9.3138e-03  2.8030e-05  9.6217e-06  1.3781e-03  1.5786e-04  0:04:55 1700
   301  9.2829e-03  2.7931e-05  9.6128e-06  1.3713e-03  1.5736e-04  0:03:56 1699
   302  9.2145e-03  2.7818e-05  9.6005e-06  1.3644e-03  1.5671e-04  0:03:08 1698
   303  9.1547e-03  2.7710e-05  9.6055e-06  1.3572e-03  1.5620e-04  0:02:31 1697
   304  9.1081e-03  2.7594e-05  9.6207e-06  1.3506e-03  1.5569e-04  0:02:00 1696
   305  9.0326e-03  2.7480e-05  9.5962e-06  1.3443e-03  1.5516e-04  0:07:15 1695
   306  8.9996e-03  2.7383e-05  9.5905e-06  1.3374e-03  1.5469e-04  0:05:48 1694
   307  8.9663e-03  2.7286e-05  9.5830e-06  1.3309e-03  1.5426e-04  0:04:38 1693
   308  8.9197e-03  2.7192e-05  9.5698e-06  1.3244e-03  1.5375e-04  0:03:42 1692

  iter  continuity  x-velocity  y-velocity           k       omega     time/iter
   309  8.8809e-03  2.7106e-05  9.5639e-06  1.3180e-03  1.5333e-04  0:02:58 1691
   310  8.8478e-03  2.7009e-05  9.5431e-06  1.3111e-03  1.5294e-04  0:08:00 1690
   311  8.8409e-03  2.6911e-05  9.5325e-06  1.3043e-03  1.5247e-04  0:06:24 1689
   312  8.7898e-03  2.6808e-05  9.4984e-06  1.2977e-03  1.5212e-04  0:05:07 1688
   313  8.7750e-03  2.6721e-05  9.4984e-06  1.2909e-03  1.5172e-04  0:04:05 1687
   314  8.7258e-03  2.6644e-05  9.4686e-06  1.2846e-03  1.5136e-04  0:03:16 1686
   315  8.6716e-03  2.6562e-05  9.4582e-06  1.2781e-03  1.5107e-04  0:02:37 1685
   316  8.6378e-03  2.6479e-05  9.4624e-06  1.2718e-03  1.5073e-04  0:07:42 1684
   317  8.5660e-03  2.6383e-05  9.4298e-06  1.2657e-03  1.5037e-04  0:06:10 1683
   318  8.5091e-03  2.6288e-05  9.4067e-06  1.2595e-03  1.4997e-04  0:04:55 1682
   319  8.4416e-03  2.6206e-05  9.3746e-06  1.2536e-03  1.4959e-04  0:03:56 1681

  iter  continuity  x-velocity  y-velocity           k       omega     time/iter
   320  8.4014e-03  2.6112e-05  9.3720e-06  1.2480e-03  1.4922e-04  0:03:09 1680
   321  8.3267e-03  2.6042e-05  9.3385e-06  1.2425e-03  1.4885e-04  0:02:31 1679
   322  8.2802e-03  2.5971e-05  9.3307e-06  1.2370e-03  1.4850e-04  0:07:36 1678
   323  8.2283e-03  2.5902e-05  9.3204e-06  1.2317e-03  1.4813e-04  0:06:05 1677
   324  8.1881e-03  2.5834e-05  9.3423e-06  1.2266e-03  1.4778e-04  0:04:52 1676
   325  8.1513e-03  2.5760e-05  9.3590e-06  1.2215e-03  1.4753e-04  0:03:53 1675
   326  8.0923e-03  2.5695e-05  9.3661e-06  1.2161e-03  1.4736e-04  0:03:06 1674
   327  8.0603e-03  2.5632e-05  9.3914e-06  1.2101e-03  1.4709e-04  0:02:29 1673
   328  8.0215e-03  2.5564e-05  9.3971e-06  1.2042e-03  1.4681e-04  0:01:59 1672
   329  7.9663e-03  2.5509e-05  9.3975e-06  1.1984e-03  1.4655e-04  0:07:10 1671
   330  7.9221e-03  2.5454e-05  9.4033e-06  1.1927e-03  1.4629e-04  0:05:43 1670

  iter  continuity  x-velocity  y-velocity           k       omega     time/iter
   331  7.8736e-03  2.5399e-05  9.3993e-06  1.1866e-03  1.4611e-04  0:04:35 1669
   332  7.8304e-03  2.5343e-05  9.3933e-06  1.1807e-03  1.4594e-04  0:03:40 1668
   333  7.8122e-03  2.5300e-05  9.3959e-06  1.1747e-03  1.4578e-04  0:02:56 1667
   334  7.7917e-03  2.5260e-05  9.4107e-06  1.1685e-03  1.4566e-04  0:02:20 1666
   335  7.7904e-03  2.5229e-05  9.4315e-06  1.1621e-03  1.4558e-04  0:07:25 1665
   336  7.7676e-03  2.5201e-05  9.4372e-06  1.1561e-03  1.4551e-04  0:05:56 1664
   337  7.7777e-03  2.5170e-05  9.4703e-06  1.1504e-03  1.4544e-04  0:04:45 1663
   338  7.7637e-03  2.5149e-05  9.4746e-06  1.1446e-03  1.4542e-04  0:03:48 1662
   339  7.7599e-03  2.5121e-05  9.4926e-06  1.1390e-03  1.4539e-04  0:03:02 1661
   340  7.7427e-03  2.5096e-05  9.5101e-06  1.1337e-03  1.4535e-04  0:02:25 1660
   341  7.7129e-03  2.5069e-05  9.5189e-06  1.1282e-03  1.4536e-04  0:07:28 1659

  iter  continuity  x-velocity  y-velocity           k       omega     time/iter
   342  7.6751e-03  2.5053e-05  9.5151e-06  1.1230e-03  1.4540e-04  0:05:58 1658
   343  7.6199e-03  2.5032e-05  9.5131e-06  1.1177e-03  1.4543e-04  0:04:46 1657
   344  7.5769e-03  2.4998e-05  9.5161e-06  1.1130e-03  1.4547e-04  0:03:49 1656
   345  7.5429e-03  2.4971e-05  9.5170e-06  1.1081e-03  1.4553e-04  0:03:03 1655
   346  7.5133e-03  2.4947e-05  9.5174e-06  1.1030e-03  1.4563e-04  0:02:26 1654
   347  7.5029e-03  2.4929e-05  9.5309e-06  1.0984e-03  1.4571e-04  0:01:57 1653
   348  7.4826e-03  2.4920e-05  9.5535e-06  1.0939e-03  1.4581e-04  0:07:04 1652
   349  7.4426e-03  2.4910e-05  9.5704e-06  1.0892e-03  1.4594e-04  0:05:39 1651
   350  7.4005e-03  2.4892e-05  9.5787e-06  1.0844e-03  1.4607e-04  0:04:31 1650
   351  7.3615e-03  2.4883e-05  9.5723e-06  1.0793e-03  1.4622e-04  0:03:37 1649
   352  7.3276e-03  2.4870e-05  9.5744e-06  1.0745e-03  1.4634e-04  0:02:53 1648

  iter  continuity  x-velocity  y-velocity           k       omega     time/iter
   353  7.3002e-03  2.4867e-05  9.5949e-06  1.0692e-03  1.4651e-04  0:02:19 1647
   354  7.2802e-03  2.4861e-05  9.6166e-06  1.0641e-03  1.4675e-04  0:07:20 1646
   355  7.2690e-03  2.4849e-05  9.6198e-06  1.0592e-03  1.4703e-04  0:05:52 1645
   356  7.2645e-03  2.4843e-05  9.6169e-06  1.0544e-03  1.4734e-04  0:04:41 1644
   357  7.2595e-03  2.4836e-05  9.6229e-06  1.0498e-03  1.4765e-04  0:03:45 1643
   358  7.2654e-03  2.4835e-05  9.6429e-06  1.0456e-03  1.4800e-04  0:08:28 1642
   359  7.2679e-03  2.4826e-05  9.6516e-06  1.0410e-03  1.4835e-04  0:06:46 1641
   360  7.2616e-03  2.4818e-05  9.6635e-06  1.0367e-03  1.4874e-04  0:05:25 1640
   361  7.2489e-03  2.4815e-05  9.6900e-06  1.0325e-03  1.4909e-04  0:04:20 1639
   362  7.2273e-03  2.4796e-05  9.6781e-06  1.0284e-03  1.4954e-04  0:03:28 1638
   363  7.2040e-03  2.4781e-05  9.6693e-06  1.0240e-03  1.5000e-04  0:02:46 1637

  iter  continuity  x-velocity  y-velocity           k       omega     time/iter
   364  7.1864e-03  2.4773e-05  9.6802e-06  1.0198e-03  1.5045e-04  0:02:13 1636
   365  7.1633e-03  2.4748e-05  9.6987e-06  1.0160e-03  1.5095e-04  0:07:13 1635
   366  7.1490e-03  2.4729e-05  9.7243e-06  1.0125e-03  1.5146e-04  0:05:46 1634
   367  7.1157e-03  2.4702e-05  9.7281e-06  1.0092e-03  1.5198e-04  0:04:37 1633
   368  7.0776e-03  2.4681e-05  9.7364e-06  1.0061e-03  1.5253e-04  0:03:41 1632
   369  7.0166e-03  2.4647e-05  9.7232e-06  1.0024e-03  1.5310e-04  0:02:57 1631
   370  6.9648e-03  2.4626e-05  9.7003e-06  9.9883e-04  1.5369e-04  0:02:21 1630
   371  6.9054e-03  2.4605e-05  9.6944e-06  9.9568e-04  1.5435e-04  0:07:19 1629
   372  6.8580e-03  2.4592e-05  9.6940e-06  9.9276e-04  1.5504e-04  0:05:51 1628
   373  6.8092e-03  2.4571e-05  9.7140e-06  9.9018e-04  1.5578e-04  0:04:41 1627
   374  6.7667e-03  2.4547e-05  9.6941e-06  9.8825e-04  1.5653e-04  0:03:44 1626

  iter  continuity  x-velocity  y-velocity           k       omega     time/iter
   375  6.7082e-03  2.4523e-05  9.6605e-06  9.8654e-04  1.5733e-04  0:02:59 1625
   376  6.6632e-03  2.4503e-05  9.6410e-06  9.8476e-04  1.5817e-04  0:02:23 1624
   377  6.5963e-03  2.4481e-05  9.5954e-06  9.8359e-04  1.5901e-04  0:01:55 1623
   378  6.5498e-03  2.4452e-05  9.6040e-06  9.8249e-04  1.5996e-04  0:06:56 1622
   379  6.4938e-03  2.4432e-05  9.5894e-06  9.8158e-04  1.6094e-04  0:05:33 1621
   380  6.4590e-03  2.4418e-05  9.5700e-06  9.8107e-04  1.6201e-04  0:04:26 1620
   381  6.4343e-03  2.4410e-05  9.5564e-06  9.8080e-04  1.6321e-04  0:03:33 1619
   382  6.3970e-03  2.4386e-05  9.5253e-06  9.8077e-04  1.6456e-04  0:02:50 1618
   383  6.3546e-03  2.4368e-05  9.4889e-06  9.8104e-04  1.6599e-04  0:02:16 1617
   384  6.3131e-03  2.4343e-05  9.4698e-06  9.8182e-04  1.6753e-04  0:07:12 1616
   385  6.2805e-03  2.4321e-05  9.4424e-06  9.8298e-04  1.6916e-04  0:05:45 1615

  iter  continuity  x-velocity  y-velocity           k       omega     time/iter
   386  6.2547e-03  2.4309e-05  9.4204e-06  9.8465e-04  1.7093e-04  0:04:36 1614
   387  6.2318e-03  2.4292e-05  9.3970e-06  9.8682e-04  1.7287e-04  0:03:41 1613
   388  6.2383e-03  2.4273e-05  9.4098e-06  9.8973e-04  1.7502e-04  0:02:56 1612
   389  6.2148e-03  2.4256e-05  9.3970e-06  9.9344e-04  1.7737e-04  0:02:21 1611
   390  6.2073e-03  2.4231e-05  9.3496e-06  9.9808e-04  1.7996e-04  0:01:53 1610
   391  6.1903e-03  2.4209e-05  9.2964e-06  1.0036e-03  1.8282e-04  0:06:52 1609
   392  6.1743e-03  2.4181e-05  9.2487e-06  1.0102e-03  1.8597e-04  0:05:29 1608
   393  6.1540e-03  2.4164e-05  9.2053e-06  1.0181e-03  1.8939e-04  0:04:23 1607
   394  6.1259e-03  2.4163e-05  9.1772e-06  1.0271e-03  1.9313e-04  0:03:31 1606
   395  6.1011e-03  2.4155e-05  9.1674e-06  1.0381e-03  1.9721e-04  0:02:48 1605
   396  6.0609e-03  2.4133e-05  9.1192e-06  1.0514e-03  2.0184e-04  0:02:15 1604

  iter  continuity  x-velocity  y-velocity           k       omega     time/iter
   397  6.0335e-03  2.4114e-05  9.0838e-06  1.0671e-03  2.0703e-04  0:07:08 1603
   398  6.0040e-03  2.4099e-05  9.0696e-06  1.0853e-03  2.1281e-04  0:05:42 1602
   399  5.9667e-03  2.4073e-05  9.0189e-06  1.1067e-03  2.1912e-04  0:04:34 1601
   400  5.9462e-03  2.4062e-05  9.0117e-06  1.1322e-03  2.2614e-04  0:03:39 1600
   401  5.9354e-03  2.4062e-05  9.0027e-06  1.1621e-03  2.3388e-04  0:02:55 1599
   402  5.9330e-03  2.4047e-05  9.0002e-06  1.1962e-03  2.4263e-04  0:07:39 1598
   403  5.9252e-03  2.4031e-05  9.0089e-06  1.2352e-03  2.5238e-04  0:06:07 1597
   404  5.9145e-03  2.4014e-05  9.0128e-06  1.2790e-03  2.6306e-04  0:04:54 1596
   405  5.8943e-03  2.4004e-05  9.0174e-06  1.3280e-03  2.7472e-04  0:03:55 1595
   406  5.8906e-03  2.4004e-05  9.0169e-06  1.3808e-03  2.8735e-04  0:03:08 1594
   407  5.8769e-03  2.3997e-05  9.0310e-06  1.4386e-03  3.0109e-04  0:02:30 1593

  iter  continuity  x-velocity  y-velocity           k       omega     time/iter
   408  5.8696e-03  2.3996e-05  9.0483e-06  1.5004e-03  3.1594e-04  0:07:18 1592
   409  5.8857e-03  2.3994e-05  9.0744e-06  1.5645e-03  3.3160e-04  0:05:50 1591
   410  5.8978e-03  2.3993e-05  9.0918e-06  1.6292e-03  3.4739e-04  0:04:40 1590
   411  5.9154e-03  2.3985e-05  9.1150e-06  1.6931e-03  3.6357e-04  0:03:44 1589
   412  5.9113e-03  2.3972e-05  9.1096e-06  1.7541e-03  3.7977e-04  0:02:59 1588
   413  5.9029e-03  2.3950e-05  9.1342e-06  1.8088e-03  3.9555e-04  0:02:23 1587
   414  5.8825e-03  2.3928e-05  9.1430e-06  1.8527e-03  4.0916e-04  0:07:12 1586
   415  5.8589e-03  2.3899e-05  9.1217e-06  1.8897e-03  4.2109e-04  0:05:45 1585
   416  5.8276e-03  2.3875e-05  9.1326e-06  1.9233e-03  4.3154e-04  0:04:36 1584
   417  5.8003e-03  2.3863e-05  9.1362e-06  1.9510e-03  4.4032e-04  0:03:41 1583
   418  5.7491e-03  2.3847e-05  9.1074e-06  1.9743e-03  4.4792e-04  0:02:56 1582

  iter  continuity  x-velocity  y-velocity           k       omega     time/iter
   419  5.6910e-03  2.3830e-05  9.0836e-06  1.9950e-03  4.5400e-04  0:02:21 1581
   420  5.6235e-03  2.3819e-05  9.0620e-06  2.0154e-03  4.5991e-04  0:07:09 1580
   421  5.5537e-03  2.3809e-05  9.0342e-06  2.0367e-03  4.6634e-04  0:05:43 1579
   422  5.4703e-03  2.3794e-05  8.9848e-06  2.0595e-03  4.7355e-04  0:04:34 1578
   423  5.3995e-03  2.3756e-05  8.9220e-06  2.0841e-03  4.8187e-04  0:03:39 1577
   424  5.3409e-03  2.3716e-05  8.8685e-06  2.1096e-03  4.9298e-04  0:02:55 1576
   425  5.2640e-03  2.3673e-05  8.8092e-06  2.1313e-03  5.0414e-04  0:02:20 1575
   426  5.1900e-03  2.3627e-05  8.7533e-06  2.1367e-03  5.1041e-04  0:07:07 1574
   427  5.1233e-03  2.3573e-05  8.6890e-06  2.1343e-03  5.1507e-04  0:05:41 1573
   428  5.0576e-03  2.3517e-05  8.6051e-06  2.1256e-03  5.1519e-04  0:04:33 1572
   429  4.9847e-03  2.3451e-05  8.5298e-06  2.1172e-03  5.1260e-04  0:03:38 1571

  iter  continuity  x-velocity  y-velocity           k       omega     time/iter
   430  4.9179e-03  2.3398e-05  8.4535e-06  2.1065e-03  5.1176e-04  0:02:54 1570
   431  4.8385e-03  2.3347e-05  8.3608e-06  2.0955e-03  5.1083e-04  0:02:19 1569
   432  4.7651e-03  2.3286e-05  8.2535e-06  2.0809e-03  5.1140e-04  0:01:51 1568
   433  4.6703e-03  2.3223e-05  8.1519e-06  2.0579e-03  5.0917e-04  0:06:43 1567
   434  4.5785e-03  2.3145e-05  8.0504e-06  2.0303e-03  5.0266e-04  0:05:22 1566
   435  4.4740e-03  2.3062e-05  7.9342e-06  2.0001e-03  4.9653e-04  0:04:17 1565
   436  4.3700e-03  2.2964e-05  7.8313e-06  1.9692e-03  4.8961e-04  0:03:26 1564
   437  4.2770e-03  2.2867e-05  7.7265e-06  1.9379e-03  4.8112e-04  0:02:44 1563
   438  4.1844e-03  2.2774e-05  7.6052e-06  1.9077e-03  4.7607e-04  0:02:11 1562
   439  4.0975e-03  2.2678e-05  7.4896e-06  1.8797e-03  4.6968e-04  0:06:57 1561
   440  4.0219e-03  2.2586e-05  7.3787e-06  1.8531e-03  4.6462e-04  0:05:34 1560

  iter  continuity  x-velocity  y-velocity           k       omega     time/iter
   441  3.9451e-03  2.2493e-05  7.2762e-06  1.8295e-03  4.6105e-04  0:04:27 1559
   442  3.8745e-03  2.2407e-05  7.1928e-06  1.8047e-03  4.5663e-04  0:03:33 1558
   443  3.8089e-03  2.2315e-05  7.1049e-06  1.7813e-03  4.5343e-04  0:02:50 1557
   444  3.7496e-03  2.2225e-05  7.0176e-06  1.7580e-03  4.5102e-04  0:02:16 1556
   445  3.7053e-03  2.2138e-05  6.9310e-06  1.7330e-03  4.5059e-04  0:07:00 1555
   446  3.6657e-03  2.2051e-05  6.8418e-06  1.7093e-03  4.5324e-04  0:05:36 1554
   447  3.6218e-03  2.1968e-05  6.7465e-06  1.6868e-03  4.5515e-04  0:04:28 1553
   448  3.5875e-03  2.1874e-05  6.6652e-06  1.6668e-03  4.5831e-04  0:03:35 1552
   449  3.5603e-03  2.1774e-05  6.5950e-06  1.6485e-03  4.6133e-04  0:02:52 1551
   450  3.5233e-03  2.1681e-05  6.5139e-06  1.6292e-03  4.6501e-04  0:07:27 1550
   451  3.4914e-03  2.1587e-05  6.4427e-06  1.6111e-03  4.7001e-04  0:05:58 1549

  iter  continuity  x-velocity  y-velocity           k       omega     time/iter
   452  3.4561e-03  2.1493e-05  6.3585e-06  1.5901e-03  4.7641e-04  0:04:46 1548
   453  3.4196e-03  2.1395e-05  6.2824e-06  1.5661e-03  4.7736e-04  0:03:49 1547
   454  3.3816e-03  2.1293e-05  6.2033e-06  1.5422e-03  4.7527e-04  0:03:03 1546
   455  3.3482e-03  2.1191e-05  6.1266e-06  1.5176e-03  4.7355e-04  0:02:26 1545
   456  3.3079e-03  2.1087e-05  6.0498e-06  1.4918e-03  4.6935e-04  0:07:06 1544
   457  3.2711e-03  2.0984e-05  5.9718e-06  1.4645e-03  4.6483e-04  0:05:40 1543
   458  3.2415e-03  2.0881e-05  5.8962e-06  1.4368e-03  4.5499e-04  0:04:32 1542
   459  3.2019e-03  2.0778e-05  5.8050e-06  1.4090e-03  4.4491e-04  0:03:37 1541
   460  3.1553e-03  2.0675e-05  5.7204e-06  1.3820e-03  4.3445e-04  0:02:54 1540
   461  3.1039e-03  2.0575e-05  5.6415e-06  1.3558e-03  4.2377e-04  0:02:19 1539
   462  3.0652e-03  2.0477e-05  5.5555e-06  1.3309e-03  4.1474e-04  0:06:59 1538

  iter  continuity  x-velocity  y-velocity           k       omega     time/iter
   463  3.0250e-03  2.0383e-05  5.4810e-06  1.3071e-03  4.0500e-04  0:05:35 1537
   464  2.9767e-03  2.0292e-05  5.4118e-06  1.2847e-03  3.9834e-04  0:04:28 1536
   465  2.9359e-03  2.0202e-05  5.3477e-06  1.2637e-03  3.9097e-04  0:03:34 1535
   466  2.8948e-03  2.0114e-05  5.2794e-06  1.2450e-03  3.8460e-04  0:02:51 1534
   467  2.8511e-03  2.0034e-05  5.2155e-06  1.2276e-03  3.7988e-04  0:02:17 1533
   468  2.8164e-03  1.9958e-05  5.1531e-06  1.2119e-03  3.7369e-04  0:01:49 1532
   469  2.7870e-03  1.9884e-05  5.0952e-06  1.1975e-03  3.6968e-04  0:06:34 1531
   470  2.7573e-03  1.9813e-05  5.0427e-06  1.1843e-03  3.6542e-04  0:05:15 1530
   471  2.7196e-03  1.9746e-05  4.9896e-06  1.1721e-03  3.6027e-04  0:04:12 1529
   472  2.6910e-03  1.9679e-05  4.9442e-06  1.1605e-03  3.5672e-04  0:03:21 1528
   473  2.6582e-03  1.9617e-05  4.9077e-06  1.1493e-03  3.5202e-04  0:02:41 1527

  iter  continuity  x-velocity  y-velocity           k       omega     time/iter
   474  2.6301e-03  1.9555e-05  4.8685e-06  1.1383e-03  3.4795e-04  0:02:09 1526
   475  2.5969e-03  1.9494e-05  4.8261e-06  1.1274e-03  3.4302e-04  0:06:48 1525
   476  2.5591e-03  1.9436e-05  4.7852e-06  1.1170e-03  3.3854e-04  0:05:26 1524
   477  2.5308e-03  1.9378e-05  4.7482e-06  1.1069e-03  3.3420e-04  0:04:21 1523
   478  2.4994e-03  1.9325e-05  4.7233e-06  1.0970e-03  3.2995e-04  0:03:28 1522
   479  2.4713e-03  1.9275e-05  4.7075e-06  1.0877e-03  3.2467e-04  0:02:47 1521
   480  2.4398e-03  1.9227e-05  4.6937e-06  1.0785e-03  3.2183e-04  0:02:13 1520
   481  2.4021e-03  1.9182e-05  4.6836e-06  1.0697e-03  3.1666e-04  0:06:50 1519
   482  2.3647e-03  1.9146e-05  4.6763e-06  1.0612e-03  3.1375e-04  0:05:28 1518
   483  2.3317e-03  1.9107e-05  4.6703e-06  1.0529e-03  3.1026e-04  0:04:22 1517
   484  2.3076e-03  1.9073e-05  4.6742e-06  1.0450e-03  3.0620e-04  0:03:30 1516

  iter  continuity  x-velocity  y-velocity           k       omega     time/iter
   485  2.2811e-03  1.9042e-05  4.6702e-06  1.0372e-03  3.0304e-04  0:02:48 1515
   486  2.2487e-03  1.9010e-05  4.6586e-06  1.0297e-03  3.0022e-04  0:02:14 1514
   487  2.2212e-03  1.8980e-05  4.6496e-06  1.0223e-03  2.9714e-04  0:01:47 1513
   488  2.2005e-03  1.8950e-05  4.6463e-06  1.0152e-03  2.9409e-04  0:06:28 1512
   489  2.1806e-03  1.8920e-05  4.6381e-06  1.0081e-03  2.9074e-04  0:05:10 1511
   490  2.1551e-03  1.8894e-05  4.6426e-06  1.0012e-03  2.8776e-04  0:04:08 1510
   491  2.1360e-03  1.8870e-05  4.6494e-06  9.9445e-04  2.8504e-04  0:03:18 1509
   492  2.1157e-03  1.8848e-05  4.6533e-06  9.8777e-04  2.8194e-04  0:02:39 1508
   493  2.1076e-03  1.8825e-05  4.6610e-06  9.8126e-04  2.7882e-04  0:07:08 1507
   494  2.0918e-03  1.8805e-05  4.6558e-06  9.7491e-04  2.7624e-04  0:05:42 1506
   495  2.0667e-03  1.8787e-05  4.6479e-06  9.6866e-04  2.7378e-04  0:04:34 1505

  iter  continuity  x-velocity  y-velocity           k       omega     time/iter
   496  2.0406e-03  1.8765e-05  4.6371e-06  9.6256e-04  2.7096e-04  0:03:39 1504
   497  2.0199e-03  1.8741e-05  4.6292e-06  9.5656e-04  2.6805e-04  0:02:55 1503
   498  1.9987e-03  1.8716e-05  4.6212e-06  9.5070e-04  2.6521e-04  0:02:20 1502
   499  1.9810e-03  1.8687e-05  4.6090e-06  9.4495e-04  2.6241e-04  0:06:52 1501
   500  1.9600e-03  1.8659e-05  4.5943e-06  9.3932e-04  2.5965e-04  0:05:29 1500
   501  1.9418e-03  1.8632e-05  4.5816e-06  9.3380e-04  2.5692e-04  0:04:23 1499
   502  1.9221e-03  1.8603e-05  4.5613e-06  9.2838e-04  2.5428e-04  0:03:31 1498
   503  1.9064e-03  1.8574e-05  4.5419e-06  9.2310e-04  2.5164e-04  0:02:48 1497
   504  1.8509e-03  1.8567e-05  4.5549e-06  9.1783e-04  2.4908e-04  0:02:15 1496
   505  1.8541e-03  1.8527e-05  4.5140e-06  9.1259e-04  2.4651e-04  0:06:47 1495
   506  1.8443e-03  1.8489e-05  4.4875e-06  9.0756e-04  2.4397e-04  0:05:25 1494

  iter  continuity  x-velocity  y-velocity           k       omega     time/iter
   507  1.7902e-03  1.8473e-05  4.4986e-06  9.0255e-04  2.4174e-04  0:04:20 1493
   508  1.8045e-03  1.8433e-05  4.4625e-06  8.9764e-04  2.3953e-04  0:03:28 1492
   509  1.8003e-03  1.8396e-05  4.4372e-06  8.9292e-04  2.3726e-04  0:02:46 1491
   510  1.7428e-03  1.8378e-05  4.4514e-06  8.8828e-04  2.3508e-04  0:02:13 1490
   511  1.7625e-03  1.8344e-05  4.4213e-06  8.8379e-04  2.3295e-04  0:06:44 1489
   512  1.7117e-03  1.8314e-05  4.4089e-06  8.7936e-04  2.3096e-04  0:05:23 1488
   513  1.7336e-03  1.8283e-05  4.3718e-06  8.7502e-04  2.2909e-04  0:04:18 1487
   514  1.6854e-03  1.8262e-05  4.3721e-06  8.7089e-04  2.2737e-04  0:03:26 1486
   515  1.7088e-03  1.8239e-05  4.3358e-06  8.6693e-04  2.2574e-04  0:02:45 1485
   516  1.6655e-03  1.8220e-05  4.3486e-06  8.6311e-04  2.2427e-04  0:02:12 1484
   517  1.6884e-03  1.8193e-05  4.3175e-06  8.5949e-04  2.2291e-04  0:06:42 1483

  iter  continuity  x-velocity  y-velocity           k       omega     time/iter
   518  1.6409e-03  1.8168e-05  4.3186e-06  8.5603e-04  2.2174e-04  0:05:21 1482
   519  1.6634e-03  1.8139e-05  4.2787e-06  8.5285e-04  2.2061e-04  0:04:17 1481
   520  1.6166e-03  1.8112e-05  4.2815e-06  8.4984e-04  2.1950e-04  0:03:25 1480
   521  1.6386e-03  1.8085e-05  4.2381e-06  8.4719e-04  2.1856e-04  0:02:44 1479
   522  1.6031e-03  1.8061e-05  4.2498e-06  8.4483e-04  2.1788e-04  0:02:11 1478
   523  1.6199e-03  1.8034e-05  4.1991e-06  8.4296e-04  2.1758e-04  0:01:45 1477
   524  1.5855e-03  1.8011e-05  4.2208e-06  8.4150e-04  2.1770e-04  0:06:19 1476
   525  1.5999e-03  1.7980e-05  4.1725e-06  8.4087e-04  2.1836e-04  0:05:03 1475
   526  1.5669e-03  1.7953e-05  4.2052e-06  8.4107e-04  2.1966e-04  0:04:02 1474
   527  1.5885e-03  1.7928e-05  4.1590e-06  8.4242e-04  2.2176e-04  0:03:14 1473
   528  1.5557e-03  1.7903e-05  4.1860e-06  8.4500e-04  2.2483e-04  0:02:35 1472

  iter  continuity  x-velocity  y-velocity           k       omega     time/iter
   529  1.5752e-03  1.7878e-05  4.1292e-06  8.4968e-04  2.2912e-04  0:02:04 1471
   530  1.5486e-03  1.7857e-05  4.1604e-06  8.5629e-04  2.3468e-04  0:06:33 1470
   531  1.5660e-03  1.7837e-05  4.1176e-06  8.6449e-04  2.4125e-04  0:05:14 1469
   532  1.5366e-03  1.7817e-05  4.1398e-06  8.7420e-04  2.4896e-04  0:04:11 1468
   533  1.5520e-03  1.7795e-05  4.0940e-06  8.8583e-04  2.5805e-04  0:03:21 1467
   534  1.5249e-03  1.7776e-05  4.1190e-06  8.9861e-04  2.6828e-04  0:02:41 1466
   535  1.5379e-03  1.7758e-05  4.0764e-06  9.1284e-04  2.7978e-04  0:02:08 1465
   536  1.5410e-03  1.7739e-05  4.0685e-06  9.2827e-04  2.9244e-04  0:01:43 1464
   537  1.5156e-03  1.7733e-05  4.1265e-06  9.4264e-04  3.0499e-04  0:06:15 1463
   538  1.5162e-03  1.7716e-05  4.0718e-06  9.5500e-04  3.1632e-04  0:04:59 1462
   539  1.5132e-03  1.7697e-05  4.0608e-06  9.6650e-04  3.2699e-04  0:03:59 1461

  iter  continuity  x-velocity  y-velocity           k       omega     time/iter
   540  1.4833e-03  1.7688e-05  4.0999e-06  9.7581e-04  3.3594e-04  0:03:11 1460
   541  1.4811e-03  1.7666e-05  4.0497e-06  9.8249e-04  3.4247e-04  0:07:25 1459
   542  1.4827e-03  1.7643e-05  4.0412e-06  9.8687e-04  3.4664e-04  0:05:56 1458
   543  1.4520e-03  1.7631e-05  4.0852e-06  9.8916e-04  3.4861e-04  0:04:44 1457
   544  1.4497e-03  1.7611e-05  4.0328e-06  9.8994e-04  3.4916e-04  0:03:47 1456
   545  1.4451e-03  1.7593e-05  4.0251e-06  9.8965e-04  3.4907e-04  0:03:02 1455
   546  1.4378e-03  1.7578e-05  4.0308e-06  9.8767e-04  3.4747e-04  0:02:25 1454
   547  1.4286e-03  1.7566e-05  4.0397e-06  9.8516e-04  3.4545e-04  0:06:47 1453
   548  1.4174e-03  1.7551e-05  4.0371e-06  9.8175e-04  3.4291e-04  0:05:25 1452
   549  1.3928e-03  1.7533e-05  4.0820e-06  9.7797e-04  3.4024e-04  0:04:20 1451
   550  1.3889e-03  1.7509e-05  4.0207e-06  9.7356e-04  3.3673e-04  0:03:28 1450

  iter  continuity  x-velocity  y-velocity           k       omega     time/iter
   551  1.3864e-03  1.7487e-05  3.9999e-06  9.6891e-04  3.3330e-04  0:02:46 1449
   552  1.3799e-03  1.7468e-05  3.9968e-06  9.6409e-04  3.2944e-04  0:02:13 1448
   553  1.3723e-03  1.7453e-05  3.9988e-06  9.5930e-04  3.2529e-04  0:01:46 1447
   554  1.3676e-03  1.7436e-05  4.0020e-06  9.5427e-04  3.2095e-04  0:06:14 1446
   555  1.3619e-03  1.7420e-05  4.0049e-06  9.4919e-04  3.1644e-04  0:04:59 1445
   556  1.3548e-03  1.7403e-05  4.0054e-06  9.4423e-04  3.1261e-04  0:03:59 1444
   557  1.3536e-03  1.7393e-05  4.0147e-06  9.3896e-04  3.0828e-04  0:03:11 1443
   558  1.3498e-03  1.7371e-05  4.0145e-06  9.3386e-04  3.0376e-04  0:02:33 1442
   559  1.3503e-03  1.7348e-05  4.0147e-06  9.2909e-04  2.9951e-04  0:02:02 1441
   560  1.3504e-03  1.7322e-05  4.0062e-06  9.2421e-04  2.9550e-04  0:06:26 1440
   561  1.3467e-03  1.7301e-05  4.0132e-06  9.1895e-04  2.9117e-04  0:05:08 1439

  iter  continuity  x-velocity  y-velocity           k       omega     time/iter
   562  1.3389e-03  1.7282e-05  4.0191e-06  9.1407e-04  2.8715e-04  0:04:06 1438
   563  1.3362e-03  1.7261e-05  4.0235e-06  9.0953e-04  2.8387e-04  0:03:17 1437
   564  1.3310e-03  1.7235e-05  4.0242e-06  9.0489e-04  2.8060e-04  0:02:38 1436
   565  1.3238e-03  1.7206e-05  4.0222e-06  9.0051e-04  2.7752e-04  0:02:06 1435
   566  1.3236e-03  1.7174e-05  4.0179e-06  8.9657e-04  2.7608e-04  0:06:27 1434
   567  1.3195e-03  1.7146e-05  4.0147e-06  8.9157e-04  2.7459e-04  0:05:10 1433
   568  1.3142e-03  1.7114e-05  4.0129e-06  8.8710e-04  2.7309e-04  0:04:08 1432
   569  1.3124e-03  1.7079e-05  4.0115e-06  8.8186e-04  2.7150e-04  0:03:18 1431
   570  1.3075e-03  1.7041e-05  4.0092e-06  8.7695e-04  2.6973e-04  0:02:38 1430
   571  1.3050e-03  1.7001e-05  4.0054e-06  8.7158e-04  2.6710e-04  0:02:07 1429
   572  1.2988e-03  1.6962e-05  3.9979e-06  8.6645e-04  2.6497e-04  0:01:41 1428

  iter  continuity  x-velocity  y-velocity           k       omega     time/iter
   573  1.2926e-03  1.6922e-05  3.9893e-06  8.6123e-04  2.6166e-04  0:06:06 1427
   574  1.2881e-03  1.6878e-05  3.9731e-06  8.5571e-04  2.5866e-04  0:04:53 1426
   575  1.2808e-03  1.6832e-05  3.9528e-06  8.5041e-04  2.5548e-04  0:03:54 1425
   576  1.2756e-03  1.6787e-05  3.9337e-06  8.4457e-04  2.5149e-04  0:03:07 1424
   577  1.2687e-03  1.6742e-05  3.9084e-06  8.3882e-04  2.4729e-04  0:02:30 1423
   578  1.2590e-03  1.6703e-05  3.8880e-06  8.3264e-04  2.4345e-04  0:02:00 1422
   579  1.2490e-03  1.6666e-05  3.8614e-06  8.2659e-04  2.3952e-04  0:06:20 1421
   580  1.2363e-03  1.6627e-05  3.8313e-06  8.2072e-04  2.3612e-04  0:05:04 1420
   581  1.2252e-03  1.6588e-05  3.8011e-06  8.1545e-04  2.3315e-04  0:04:03 1419
   582  1.2093e-03  1.6549e-05  3.7701e-06  8.1023e-04  2.3015e-04  0:03:14 1418
   583  1.2002e-03  1.6514e-05  3.7424e-06  8.0505e-04  2.2714e-04  0:02:35 1417

  iter  continuity  x-velocity  y-velocity           k       omega     time/iter
   584  1.1878e-03  1.6481e-05  3.7106e-06  7.9973e-04  2.2398e-04  0:06:47 1416
   585  1.1773e-03  1.6447e-05  3.6785e-06  7.9431e-04  2.2047e-04  0:05:26 1415
   586  1.1667e-03  1.6416e-05  3.6445e-06  7.8863e-04  2.1693e-04  0:04:20 1414
   587  1.1631e-03  1.6387e-05  3.6112e-06  7.8324e-04  2.1403e-04  0:03:28 1413
   588  1.1550e-03  1.6356e-05  3.5788e-06  7.7830e-04  2.1192e-04  0:02:46 1412
   589  1.1471e-03  1.6326e-05  3.5484e-06  7.7426e-04  2.1067e-04  0:02:13 1411
   590  1.1399e-03  1.6299e-05  3.5204e-06  7.7045e-04  2.0940e-04  0:06:28 1410
   591  1.1310e-03  1.6272e-05  3.4893e-06  7.6645e-04  2.0802e-04  0:05:10 1409
   592  1.1192e-03  1.6245e-05  3.4585e-06  7.6227e-04  2.0607e-04  0:04:08 1408
   593  1.1075e-03  1.6218e-05  3.4284e-06  7.5785e-04  2.0338e-04  0:03:18 1407
   594  1.0970e-03  1.6191e-05  3.3976e-06  7.5321e-04  2.0038e-04  0:02:39 1406

  iter  continuity  x-velocity  y-velocity           k       omega     time/iter
   595  1.0874e-03  1.6166e-05  3.3689e-06  7.4856e-04  1.9765e-04  0:02:07 1405
   596  1.0774e-03  1.6142e-05  3.3382e-06  7.4383e-04  1.9515e-04  0:06:22 1404
   597  1.0660e-03  1.6121e-05  3.3119e-06  7.3913e-04  1.9268e-04  0:05:06 1403
   598  1.0546e-03  1.6099e-05  3.2836e-06  7.3449e-04  1.9056e-04  0:04:04 1402
   599  1.0429e-03  1.6077e-05  3.2575e-06  7.2987e-04  1.8890e-04  0:03:15 1401
   600  1.0339e-03  1.6055e-05  3.2354e-06  7.2533e-04  1.8740e-04  0:02:36 1400
   601  1.0249e-03  1.6036e-05  3.2135e-06  7.2084e-04  1.8605e-04  0:02:05 1399
   602  1.0164e-03  1.6015e-05  3.1947e-06  7.1643e-04  1.8483e-04  0:01:40 1398
   603  1.0063e-03  1.5994e-05  3.1742e-06  7.1191e-04  1.8343e-04  0:05:59 1397
   604  9.9694e-04  1.5972e-05  3.1539e-06  7.0742e-04  1.8208e-04  0:04:47 1396
   605  9.8955e-04  1.5949e-05  3.1339e-06  7.0296e-04  1.8070e-04  0:03:50 1395

  iter  continuity  x-velocity  y-velocity           k       omega     time/iter
   606  9.8057e-04  1.5926e-05  3.1154e-06  6.9852e-04  1.7929e-04  0:03:03 1394
   607  9.7464e-04  1.5903e-05  3.0984e-06  6.9412e-04  1.7780e-04  0:02:27 1393
   608  9.6835e-04  1.5879e-05  3.0822e-06  6.8966e-04  1.7621e-04  0:01:57 1392
   609  9.6233e-04  1.5855e-05  3.0649e-06  6.8524e-04  1.7462e-04  0:06:12 1391
   610  9.5852e-04  1.5828e-05  3.0488e-06  6.8090e-04  1.7302e-04  0:04:57 1390
   611  9.5217e-04  1.5801e-05  3.0318e-06  6.7661e-04  1.7152e-04  0:03:58 1389
   612  9.4910e-04  1.5775e-05  3.0171e-06  6.7236e-04  1.7009e-04  0:03:10 1388
   613  9.4433e-04  1.5748e-05  3.0022e-06  6.6822e-04  1.6867e-04  0:02:32 1387
   614  9.3798e-04  1.5719e-05  2.9877e-06  6.6409e-04  1.6738e-04  0:02:01 1386
   615  9.3566e-04  1.5690e-05  2.9770e-06  6.5998e-04  1.6617e-04  0:01:37 1385
   616  9.3170e-04  1.5660e-05  2.9681e-06  6.5583e-04  1.6493e-04  0:05:54 1384

  iter  continuity  x-velocity  y-velocity           k       omega     time/iter
   617  9.2836e-04  1.5628e-05  2.9589e-06  6.5172e-04  1.6374e-04  0:04:43 1383
   618  9.2437e-04  1.5595e-05  2.9485e-06  6.4759e-04  1.6254e-04  0:03:46 1382
   619  9.1926e-04  1.5562e-05  2.9393e-06  6.4352e-04  1.6140e-04  0:03:01 1381
   620  9.1506e-04  1.5532e-05  2.9308e-06  6.3950e-04  1.6031e-04  0:02:25 1380
   621  9.1239e-04  1.5503e-05  2.9228e-06  6.3553e-04  1.5923e-04  0:01:56 1379
   622  9.1199e-04  1.5472e-05  2.9167e-06  6.3153e-04  1.5809e-04  0:06:08 1378
   623  9.1028e-04  1.5441e-05  2.9095e-06  6.2756e-04  1.5694e-04  0:04:54 1377
   624  9.0804e-04  1.5412e-05  2.8996e-06  6.2364e-04  1.5580e-04  0:03:55 1376
   625  9.0690e-04  1.5382e-05  2.8908e-06  6.1977e-04  1.5467e-04  0:03:08 1375
   626  9.0760e-04  1.5353e-05  2.8830e-06  6.1598e-04  1.5355e-04  0:02:30 1374
   627  9.0748e-04  1.5326e-05  2.8732e-06  6.1222e-04  1.5246e-04  0:02:00 1373

  iter  continuity  x-velocity  y-velocity           k       omega     time/iter
   628  9.0820e-04  1.5300e-05  2.8636e-06  6.0853e-04  1.5141e-04  0:06:10 1372
   629  9.0609e-04  1.5273e-05  2.8549e-06  6.0485e-04  1.5031e-04  0:04:56 1371
   630  9.0664e-04  1.5249e-05  2.8449e-06  6.0126e-04  1.4925e-04  0:03:57 1370
   631  9.0558e-04  1.5221e-05  2.8338e-06  5.9774e-04  1.4823e-04  0:03:09 1369
   632  9.0928e-04  1.5195e-05  2.8231e-06  5.9427e-04  1.4723e-04  0:02:31 1368
   633  9.0646e-04  1.5169e-05  2.8114e-06  5.9083e-04  1.4624e-04  0:06:34 1367
   634  9.0951e-04  1.5143e-05  2.7999e-06  5.8740e-04  1.4524e-04  0:05:15 1366
   635  9.1010e-04  1.5116e-05  2.7884e-06  5.8398e-04  1.4421e-04  0:04:12 1365
   636  9.1003e-04  1.5091e-05  2.7765e-06  5.8055e-04  1.4321e-04  0:03:21 1364
   637  9.0853e-04  1.5067e-05  2.7643e-06  5.7717e-04  1.4218e-04  0:02:41 1363
   638  9.0584e-04  1.5043e-05  2.7500e-06  5.7385e-04  1.4116e-04  0:02:09 1362

  iter  continuity  x-velocity  y-velocity           k       omega     time/iter
   639  9.0678e-04  1.5019e-05  2.7354e-06  5.7058e-04  1.4016e-04  0:06:15 1361
   640  9.0311e-04  1.4985e-05  2.7213e-06  5.6736e-04  1.3920e-04  0:05:00 1360
   641  9.0291e-04  1.4957e-05  2.7068e-06  5.6417e-04  1.3826e-04  0:04:00 1359
   642  8.9963e-04  1.4931e-05  2.6914e-06  5.6101e-04  1.3733e-04  0:03:12 1358
   643  8.9965e-04  1.4908e-05  2.6768e-06  5.5787e-04  1.3642e-04  0:02:33 1357
   644  8.9753e-04  1.4884e-05  2.6604e-06  5.5478e-04  1.3555e-04  0:02:02 1356
   645  8.9760e-04  1.4859e-05  2.6440e-06  5.5174e-04  1.3470e-04  0:01:38 1355
   646  8.9413e-04  1.4835e-05  2.6279e-06  5.4873e-04  1.3388e-04  0:05:49 1354
   647  8.9362e-04  1.4811e-05  2.6118e-06  5.4578e-04  1.3307e-04  0:04:39 1353
   648  8.9685e-04  1.4789e-05  2.5966e-06  5.4287e-04  1.3231e-04  0:03:43 1352
   649  8.9555e-04  1.4768e-05  2.5811e-06  5.4000e-04  1.3156e-04  0:02:58 1351

  iter  continuity  x-velocity  y-velocity           k       omega     time/iter
   650  8.9618e-04  1.4747e-05  2.5641e-06  5.3714e-04  1.3084e-04  0:02:23 1350
   651  8.9381e-04  1.4726e-05  2.5467e-06  5.3430e-04  1.3014e-04  0:01:54 1349
   652  8.9291e-04  1.4702e-05  2.5308e-06  5.3152e-04  1.2945e-04  0:06:01 1348
   653  8.9516e-04  1.4679e-05  2.5147e-06  5.2879e-04  1.2875e-04  0:04:48 1347
   654  8.9717e-04  1.4656e-05  2.5023e-06  5.2605e-04  1.2803e-04  0:03:51 1346
   655  8.9403e-04  1.4635e-05  2.4868e-06  5.2333e-04  1.2730e-04  0:03:04 1345
   656  8.9597e-04  1.4613e-05  2.4731e-06  5.2062e-04  1.2658e-04  0:02:27 1344
   657  8.9563e-04  1.4593e-05  2.4589e-06  5.1796e-04  1.2587e-04  0:01:58 1343
   658  8.9430e-04  1.4573e-05  2.4448e-06  5.1532e-04  1.2517e-04  0:01:34 1342
   659  8.9166e-04  1.4552e-05  2.4307e-06  5.1271e-04  1.2448e-04  0:05:43 1341
   660  8.9112e-04  1.4529e-05  2.4161e-06  5.1014e-04  1.2379e-04  0:04:35 1340

  iter  continuity  x-velocity  y-velocity           k       omega     time/iter
   661  8.8884e-04  1.4509e-05  2.4020e-06  5.0759e-04  1.2310e-04  0:03:39 1339
   662  8.8911e-04  1.4490e-05  2.3867e-06  5.0507e-04  1.2242e-04  0:02:55 1338
   663  8.9061e-04  1.4470e-05  2.3720e-06  5.0258e-04  1.2174e-04  0:02:20 1337
   664  8.9145e-04  1.4449e-05  2.3575e-06  5.0010e-04  1.2107e-04  0:01:52 1336
   665  8.9253e-04  1.4429e-05  2.3453e-06  4.9762e-04  1.2037e-04  0:05:57 1335
   666  8.9372e-04  1.4410e-05  2.3341e-06  4.9512e-04  1.1963e-04  0:04:45 1334
[...]
  1856  2.1236e-04  7.2073e-06  7.9797e-07  3.2043e-05  3.7546e-05  0:00:16  144
  1857  2.1080e-04  7.2042e-06  7.9702e-07  3.2007e-05  3.7538e-05  0:00:13  143
  1858  2.1052e-04  7.2000e-06  7.9693e-07  3.1971e-05  3.7526e-05  0:00:39  142
  1859  2.0773e-04  7.1983e-06  7.9623e-07  3.1933e-05  3.7517e-05  0:00:31  141

  iter  continuity  x-velocity  y-velocity           k       omega     time/iter
  1860  2.0787e-04  7.1949e-06  7.9734e-07  3.1898e-05  3.7507e-05  0:00:24  140
  1861  2.0625e-04  7.1915e-06  7.9449e-07  3.1861e-05  3.7498e-05  0:00:19  139
  1862  2.0436e-04  7.1882e-06  7.9339e-07  3.1827e-05  3.7487e-05  0:00:15  138
  1863  2.0644e-04  7.1860e-06  7.9446e-07  3.1790e-05  3.7478e-05  0:00:12  137
  1864  2.0457e-04  7.1806e-06  7.9250e-07  3.1755e-05  3.7468e-05  0:00:10  136
  1865  2.0442e-04  7.1788e-06  7.9199e-07  3.1719e-05  3.7460e-05  0:00:35  135
  1866  2.0655e-04  7.1762e-06  7.9175e-07  3.1684e-05  3.7449e-05  0:00:28  134
  1867  2.0401e-04  7.1738e-06  7.9100e-07  3.1649e-05  3.7443e-05  0:00:22  133
  1868  2.0635e-04  7.1727e-06  7.8990e-07  3.1614e-05  3.7431e-05  0:00:17  132
  1869  2.0664e-04  7.1702e-06  7.9106e-07  3.1578e-05  3.7425e-05  0:00:14  131
  1870  2.0544e-04  7.1675e-06  7.8976e-07  3.1544e-05  3.7413e-05  0:00:11  130

  iter  continuity  x-velocity  y-velocity           k       omega     time/iter
  1871  2.0481e-04  7.1637e-06  7.8994e-07  3.1508e-05  3.7407e-05  0:00:34  129
  1872  2.0594e-04  7.1599e-06  7.9055e-07  3.1474e-05  3.7396e-05  0:00:27  128
  1873  2.0598e-04  7.1559e-06  7.8788e-07  3.1439e-05  3.7390e-05  0:00:22  127
  1874  2.0718e-04  7.1516e-06  7.8890e-07  3.1405e-05  3.7379e-05  0:00:17  126
  1875  2.0601e-04  7.1484e-06  7.8730e-07  3.1371e-05  3.7373e-05  0:00:14  125
  1876  2.0516e-04  7.1452e-06  7.8662e-07  3.1336e-05  3.7362e-05  0:00:11  124
  1877  2.0640e-04  7.1418e-06  7.8561e-07  3.1301e-05  3.7355e-05  0:00:33  123
  1878  2.0774e-04  7.1395e-06  7.8553e-07  3.1266e-05  3.7344e-05  0:00:26  122
  1879  2.0576e-04  7.1371e-06  7.8513e-07  3.1231e-05  3.7336e-05  0:00:21  121
  1880  2.0498e-04  7.1343e-06  7.8445e-07  3.1197e-05  3.7324e-05  0:00:17  120
  1881  2.0418e-04  7.1326e-06  7.8390e-07  3.1162e-05  3.7317e-05  0:00:37  119

  iter  continuity  x-velocity  y-velocity           k       omega     time/iter
  1882  2.0424e-04  7.1300e-06  7.8358e-07  3.1126e-05  3.7305e-05  0:00:29  118
  1883  2.0346e-04  7.1259e-06  7.8341e-07  3.1093e-05  3.7297e-05  0:00:23  117
  1884  2.0303e-04  7.1223e-06  7.8274e-07  3.1058e-05  3.7285e-05  0:00:18  116
  1885  2.0160e-04  7.1179e-06  7.8197e-07  3.1023e-05  3.7278e-05  0:00:15  115
  1886  2.0123e-04  7.1147e-06  7.8191e-07  3.0988e-05  3.7266e-05  0:00:12  114
  1887  2.0243e-04  7.1119e-06  7.8174e-07  3.0954e-05  3.7260e-05  0:00:09  113
  1888  2.0207e-04  7.1088e-06  7.8064e-07  3.0921e-05  3.7247e-05  0:00:30  112
  1889  2.0240e-04  7.1056e-06  7.7963e-07  3.0884e-05  3.7241e-05  0:00:24  111
  1890  2.0212e-04  7.1024e-06  7.7972e-07  3.0851e-05  3.7230e-05  0:00:19  110
  1891  2.0260e-04  7.0997e-06  7.7983e-07  3.0817e-05  3.7223e-05  0:00:15  109
  1892  2.0384e-04  7.0976e-06  7.7939e-07  3.0783e-05  3.7211e-05  0:00:12  108

  iter  continuity  x-velocity  y-velocity           k       omega     time/iter
  1893  2.0441e-04  7.0960e-06  7.7938e-07  3.0750e-05  3.7205e-05  0:00:09  107
  1894  2.0484e-04  7.0929e-06  7.7860e-07  3.0715e-05  3.7194e-05  0:00:29  106
  1895  2.0448e-04  7.0899e-06  7.7869e-07  3.0682e-05  3.7186e-05  0:00:23  105
  1896  2.0330e-04  7.0865e-06  7.7756e-07  3.0648e-05  3.7176e-05  0:00:18  104
  1897  2.0370e-04  7.0831e-06  7.7660e-07  3.0614e-05  3.7169e-05  0:00:14  103
  1898  2.0527e-04  7.0801e-06  7.7634e-07  3.0580e-05  3.7158e-05  0:00:11  102
  1899  2.0743e-04  7.0763e-06  7.7582e-07  3.0547e-05  3.7151e-05  0:00:09  101
  1900  2.0529e-04  7.0730e-06  7.7537e-07  3.0514e-05  3.7141e-05  0:00:27  100
  1901  2.0491e-04  7.0704e-06  7.7460e-07  3.0480e-05  3.7133e-05  0:00:21   99
  1902  2.0577e-04  7.0668e-06  7.7474e-07  3.0447e-05  3.7124e-05  0:00:17   98
  1903  2.0496e-04  7.0641e-06  7.7361e-07  3.0414e-05  3.7117e-05  0:00:13   97

  iter  continuity  x-velocity  y-velocity           k       omega     time/iter
  1904  2.0598e-04  7.0607e-06  7.7517e-07  3.0381e-05  3.7108e-05  0:00:11   96
  1905  2.0454e-04  7.0580e-06  7.7318e-07  3.0348e-05  3.7101e-05  0:00:08   95
  1906  2.0489e-04  7.0560e-06  7.7186e-07  3.0315e-05  3.7092e-05  0:00:25   94
  1907  2.0357e-04  7.0521e-06  7.7193e-07  3.0282e-05  3.7085e-05  0:00:20   93
  1908  2.0399e-04  7.0485e-06  7.7109e-07  3.0250e-05  3.7076e-05  0:00:16   92
  1909  2.0175e-04  7.0460e-06  7.7040e-07  3.0217e-05  3.7069e-05  0:00:13   91
  1910  2.0258e-04  7.0433e-06  7.6949e-07  3.0185e-05  3.7059e-05  0:00:10   90
  1911  2.0077e-04  7.0400e-06  7.6895e-07  3.0152e-05  3.7053e-05  0:00:08   89
  1912  2.0062e-04  7.0371e-06  7.6869e-07  3.0119e-05  3.7044e-05  0:00:06   88
  1913  1.9901e-04  7.0335e-06  7.6734e-07  3.0087e-05  3.7037e-05  0:00:22   87
  1914  1.9931e-04  7.0298e-06  7.6664e-07  3.0054e-05  3.7028e-05  0:00:18   86

  iter  continuity  x-velocity  y-velocity           k       omega     time/iter
  1915  1.9955e-04  7.0253e-06  7.6603e-07  3.0021e-05  3.7018e-05  0:00:14   85
  1916  1.9823e-04  7.0232e-06  7.6523e-07  2.9989e-05  3.7008e-05  0:00:11   84
  1917  1.9743e-04  7.0196e-06  7.6537e-07  2.9956e-05  3.6999e-05  0:00:09   83
  1918  1.9621e-04  7.0160e-06  7.6433e-07  2.9923e-05  3.6988e-05  0:00:07   82
  1919  1.9716e-04  7.0149e-06  7.6358e-07  2.9892e-05  3.6980e-05  0:00:22   81
  1920  1.9753e-04  7.0124e-06  7.6268e-07  2.9859e-05  3.6969e-05  0:00:17   80
  1921  1.9525e-04  7.0093e-06  7.6262e-07  2.9827e-05  3.6962e-05  0:00:14   79
  1922  1.9570e-04  7.0061e-06  7.6211e-07  2.9796e-05  3.6950e-05  0:00:11   78
  1923  1.9505e-04  7.0038e-06  7.6125e-07  2.9764e-05  3.6943e-05  0:00:24   77
  1924  1.9397e-04  7.0013e-06  7.6117e-07  2.9732e-05  3.6932e-05  0:00:19   76
  1925  1.9526e-04  6.9976e-06  7.6035e-07  2.9701e-05  3.6924e-05  0:00:15   75

  iter  continuity  x-velocity  y-velocity           k       omega     time/iter
  1926  1.9476e-04  6.9948e-06  7.5964e-07  2.9668e-05  3.6913e-05  0:00:12   74
  1927  1.9556e-04  6.9918e-06  7.5991e-07  2.9635e-05  3.6906e-05  0:00:09   73
  1928  1.9416e-04  6.9891e-06  7.5866e-07  2.9604e-05  3.6894e-05  0:00:07   72
  1929  1.9335e-04  6.9869e-06  7.5872e-07  2.9573e-05  3.6887e-05  0:00:20   71
  1930  1.9408e-04  6.9836e-06  7.5831e-07  2.9540e-05  3.6874e-05  0:00:16   70
  1931  1.9422e-04  6.9802e-06  7.5777e-07  2.9508e-05  3.6866e-05  0:00:12   69
  1932  1.9335e-04  6.9771e-06  7.5784e-07  2.9477e-05  3.6853e-05  0:00:10   68
  1933  1.9298e-04  6.9740e-06  7.5634e-07  2.9445e-05  3.6845e-05  0:00:08   67
  1934  1.9423e-04  6.9719e-06  7.5631e-07  2.9414e-05  3.6834e-05  0:00:06   66
  1935  1.9346e-04  6.9693e-06  7.5614e-07  2.9381e-05  3.6825e-05  0:00:18   65
  1936  1.9352e-04  6.9657e-06  7.5504e-07  2.9349e-05  3.6813e-05  0:00:14   64

  iter  continuity  x-velocity  y-velocity           k       omega     time/iter
  1937  1.9231e-04  6.9631e-06  7.5485e-07  2.9318e-05  3.6805e-05  0:00:11   63
  1938  1.9326e-04  6.9604e-06  7.5382e-07  2.9286e-05  3.6794e-05  0:00:09   62
  1939  1.9234e-04  6.9571e-06  7.5306e-07  2.9256e-05  3.6785e-05  0:00:07   61
  1940  1.9257e-04  6.9542e-06  7.5239e-07  2.9224e-05  3.6775e-05  0:00:05   60
  1941  1.9316e-04  6.9516e-06  7.5199e-07  2.9192e-05  3.6766e-05  0:00:04   59
  1942  1.9380e-04  6.9485e-06  7.5182e-07  2.9161e-05  3.6755e-05  0:00:15   58
  1943  1.9115e-04  6.9456e-06  7.5124e-07  2.9131e-05  3.6747e-05  0:00:12   57
  1944  1.9187e-04  6.9426e-06  7.5146e-07  2.9100e-05  3.6738e-05  0:00:09   56
  1945  1.9112e-04  6.9388e-06  7.4966e-07  2.9069e-05  3.6730e-05  0:00:07   55
  1946  1.9163e-04  6.9352e-06  7.4978e-07  2.9038e-05  3.6720e-05  0:00:06   54
  1947  1.9309e-04  6.9344e-06  7.5048e-07  2.9008e-05  3.6712e-05  0:00:04   53

  iter  continuity  x-velocity  y-velocity           k       omega     time/iter
  1948  1.9300e-04  6.9305e-06  7.4898e-07  2.8977e-05  3.6702e-05  0:00:14   52
  1949  1.9183e-04  6.9265e-06  7.4734e-07  2.8947e-05  3.6694e-05  0:00:11   51
  1950  1.9277e-04  6.9241e-06  7.4682e-07  2.8917e-05  3.6685e-05  0:00:09   50
  1951  1.9220e-04  6.9209e-06  7.4671e-07  2.8887e-05  3.6679e-05  0:00:07   49
  1952  1.9115e-04  6.9179e-06  7.4640e-07  2.8859e-05  3.6670e-05  0:00:05   48
  1953  1.8860e-04  6.9147e-06  7.4510e-07  2.8831e-05  3.6663e-05  0:00:04   47
  1954  1.8952e-04  6.9113e-06  7.4408e-07  2.8800e-05  3.6654e-05  0:00:12   46
  1955  1.8985e-04  6.9088e-06  7.4372e-07  2.8768e-05  3.6647e-05  0:00:10   45
  1956  1.9169e-04  6.9065e-06  7.4236e-07  2.8737e-05  3.6639e-05  0:00:08   44
  1957  1.8931e-04  6.9032e-06  7.4294e-07  2.8707e-05  3.6631e-05  0:00:06   43
  1958  1.9041e-04  6.9010e-06  7.4270e-07  2.8676e-05  3.6624e-05  0:00:05   42

  iter  continuity  x-velocity  y-velocity           k       omega     time/iter
  1959  1.8967e-04  6.8982e-06  7.4122e-07  2.8645e-05  3.6615e-05  0:00:04   41
  1960  1.8951e-04  6.8949e-06  7.4035e-07  2.8615e-05  3.6608e-05  0:00:11   40
  1961  1.9097e-04  6.8913e-06  7.3996e-07  2.8585e-05  3.6598e-05  0:00:08   39
  1962  1.8909e-04  6.8884e-06  7.4023e-07  2.8556e-05  3.6590e-05  0:00:07   38
  1963  1.9008e-04  6.8871e-06  7.3977e-07  2.8526e-05  3.6581e-05  0:00:05   37
  1964  1.8907e-04  6.8845e-06  7.3952e-07  2.8496e-05  3.6571e-05  0:00:04   36
  1965  1.8985e-04  6.8818e-06  7.3906e-07  2.8465e-05  3.6562e-05  0:00:10   35
  1966  1.9069e-04  6.8775e-06  7.3868e-07  2.8434e-05  3.6552e-05  0:00:08   34
  1967  1.9120e-04  6.8745e-06  7.3699e-07  2.8405e-05  3.6543e-05  0:00:06   33
  1968  1.9004e-04  6.8703e-06  7.3686e-07  2.8375e-05  3.6534e-05  0:00:05   32
  1969  1.9121e-04  6.8676e-06  7.3631e-07  2.8344e-05  3.6524e-05  0:00:04   31

  iter  continuity  x-velocity  y-velocity           k       omega     time/iter
  1970  1.9129e-04  6.8654e-06  7.3579e-07  2.8315e-05  3.6514e-05  0:00:03   30
  1971  1.9145e-04  6.8624e-06  7.3571e-07  2.8286e-05  3.6506e-05  0:00:08   29
  1972  1.9049e-04  6.8608e-06  7.3503e-07  2.8256e-05  3.6497e-05  0:00:06   28
  1973  1.8949e-04  6.8582e-06  7.3435e-07  2.8226e-05  3.6489e-05  0:00:05   27
  1974  1.8843e-04  6.8543e-06  7.3382e-07  2.8198e-05  3.6481e-05  0:00:04   26
  1975  1.9072e-04  6.8520e-06  7.3359e-07  2.8168e-05  3.6473e-05  0:00:03   25
  1976  1.9099e-04  6.8487e-06  7.3267e-07  2.8140e-05  3.6465e-05  0:00:02   24
  1977  1.9097e-04  6.8451e-06  7.3232e-07  2.8110e-05  3.6457e-05  0:00:06   23
  1978  1.9134e-04  6.8425e-06  7.3247e-07  2.8081e-05  3.6449e-05  0:00:05   22
  1979  1.8901e-04  6.8404e-06  7.3084e-07  2.8053e-05  3.6443e-05  0:00:04   21
  1980  1.9175e-04  6.8370e-06  7.2990e-07  2.8024e-05  3.6435e-05  0:00:03   20

  iter  continuity  x-velocity  y-velocity           k       omega     time/iter
  1981  1.9209e-04  6.8343e-06  7.3053e-07  2.7997e-05  3.6427e-05  0:00:02   19
  1982  1.9097e-04  6.8309e-06  7.2963e-07  2.7968e-05  3.6419e-05  0:00:02   18
  1983  1.9125e-04  6.8275e-06  7.2878e-07  2.7940e-05  3.6413e-05  0:00:05   17
  1984  1.9047e-04  6.8243e-06  7.2868e-07  2.7912e-05  3.6405e-05  0:00:03   16
  1985  1.9165e-04  6.8219e-06  7.2877e-07  2.7884e-05  3.6398e-05  0:00:03   15
  1986  1.9295e-04  6.8199e-06  7.2814e-07  2.7856e-05  3.6391e-05  0:00:02   14
  1987  1.9020e-04  6.8178e-06  7.2787e-07  2.7829e-05  3.6384e-05  0:00:01   13
  1988  1.9207e-04  6.8154e-06  7.2726e-07  2.7802e-05  3.6377e-05  0:00:01   12
  1989  1.9193e-04  6.8130e-06  7.2600e-07  2.7774e-05  3.6371e-05  0:00:03   11
  1990  1.9203e-04  6.8097e-06  7.2629e-07  2.7746e-05  3.6364e-05  0:00:02   10
  1991  1.8962e-04  6.8062e-06  7.2558e-07  2.7718e-05  3.6358e-05  0:00:02    9

  iter  continuity  x-velocity  y-velocity           k       omega     time/iter
  1992  1.9146e-04  6.8034e-06  7.2378e-07  2.7692e-05  3.6350e-05  0:00:01    8
  1993  1.9219e-04  6.7998e-06  7.2481e-07  2.7665e-05  3.6344e-05  0:00:01    7
  1994  1.9109e-04  6.7978e-06  7.2312e-07  2.7637e-05  3.6338e-05  0:00:01    6
  1995  1.9159e-04  6.7947e-06  7.2360e-07  2.7610e-05  3.6331e-05  0:00:00    5
  1996  1.9253e-04  6.7907e-06  7.2283e-07  2.7584e-05  3.6325e-05  0:00:01    4
  1997  1.9188e-04  6.7879e-06  7.2326e-07  2.7557e-05  3.6319e-05  0:00:01    3
  1998  1.9196e-04  6.7852e-06  7.2220e-07  2.7531e-05  3.6313e-05  0:00:00    2
  1999  1.9025e-04  6.7822e-06  7.2221e-07  2.7503e-05  3.6307e-05  0:00:00    1
  2000  1.9102e-04  6.7806e-06  7.2171e-07  2.7478e-05  3.6301e-05  0:00:00    0

> 
adjoint/                parallel/               server/
define/                 parametric-study/       solve/
display/                plot/                   surface/
exit                    preferences/            views/
file/                   print-license-usage
mesh/                   report/

> ;create rakes
surface/rake-surface cv_inlet -0.005 -0.065 -0.005 0.065 1000

> surface/rake-surface cv_outlet 1.005 -0.065 1.005 0.065 1000

> surface/rake-surface cv_top -0.005 0.065 1.005 0.065 1000

> surface/rake-surface cv_bottom -0.005 -0.065 1.005 -0.065 1000

> surface/point-surface free-stream -15 0

> 
adjoint/                parallel/               server/
define/                 parametric-study/       solve/
display/                plot/                   surface/
exit                    preferences/            views/
file/                   print-license-usage
mesh/                   report/

> ;export data
file/export/ascii NP_CVinlet_data cv_inlet () no pressure x-velocity y-velocity dx-velocity-dx dx-velocity-dy dy-velocity-dx dy-velocity-dy q no 
Writing "NP_CVinlet_data"...

Writing information to ascii file ...
Done.

ok


Overwrite confirmations (/file/set-batch-options ...)
are on -- will therefore ignore the following journal
Error: invalid command: ok


> file/export/ascii NP_CVoutlet_data cv_outlet () no pressure x-velocity y-velocity dx-velocity-dx dx-velocity-dy dy-velocity-dx dy-velocity-dy q no 
Writing "NP_CVoutlet_data"...

Writing information to ascii file ...
Done.

ok


Overwrite confirmations (/file/set-batch-options ...)
are on -- will therefore ignore the following journal
Error: invalid command: ok


> file/export/ascii NP_CVtop_data cv_top () no pressure x-velocity y-velocity dx-velocity-dx dx-velocity-dy dy-velocity-dx dy-velocity-dy q no 
Writing "NP_CVtop_data"...

Writing information to ascii file ...
Done.

ok


Overwrite confirmations (/file/set-batch-options ...)
are on -- will therefore ignore the following journal
Error: invalid command: ok


> file/export/ascii NP_CVbottom_data cv_bottom () no pressure x-velocity y-velocity dx-velocity-dx dx-velocity-dy dy-velocity-dx dy-velocity-dy q no 
Writing "NP_CVbottom_data"...

Writing information to ascii file ...
Done.

ok


Overwrite confirmations (/file/set-batch-options ...)
are on -- will therefore ignore the following journal
Error: invalid command: ok


> file/export/ascii air_properties free-stream () no density viscosity-lam q no 
Writing "air_properties"...

Writing information to ascii file ...
Done.

ok


Overwrite confirmations (/file/set-batch-options ...)
are on -- will therefore ignore the following journal
Error: invalid command: ok


> 
adjoint/                parallel/               server/
define/                 parametric-study/       solve/
display/                plot/                   surface/
exit                    preferences/            views/
file/                   print-license-usage
mesh/                   report/

> ;flag file to know when simulation is over
file/export/ascii flag_file free-stream () no pressure q no 
Writing "flag_file"...

Writing information to ascii file ...
Done.

ok


Overwrite confirmations (/file/set-batch-options ...)
are on -- will therefore ignore the following journal
Error: invalid command: ok


> 
adjoint/                parallel/               server/
define/                 parametric-study/       solve/
display/                plot/                   surface/
exit                    preferences/            views/
file/                   print-license-usage
mesh/                   report/

> (cx-gui-do cx-activate-item "MenuBar*WriteSubMenu*Case & Data...")
(cx-gui-do cx-set-file-dialog-entries "Select File" '( "C:/Users/V.Chepuri/OneDrive - Cranfield University/irp/pablo/post_process/re_200000/aoa_15/template_medium.cas.h5") "CFF Case/Data Files (*.cas.h5 *.dat.h5 )")

Writing to 37PCL051:"C:/Users/V.Chepuri/OneDrive - Cranfield University/irp/pablo/post_process/re_200000/aoa_15/template_medium.cas.h5" in NODE0 mode and compression level 1 ...
Grouping cells for Laplace smoothing ...
      181070 cells,     4 zones ...
      309160 faces,    14 zones ...
      102461 nodes,     1 zone  ...
  Done.
Done.

Writing to 37PCL051:"C:/Users/V.Chepuri/OneDrive - Cranfield University/irp/pablo/post_process/re_200000/aoa_15/template_medium.dat.h5" in NODE0 mode and compression level 1 ...
  Writing results.
Done.
(cx-gui-do cx-activate-item "MenuBar*ExportSubMenu*Solution Data...")
(cx-gui-do cx-set-list-selections "Export*Table1*Table1*DropDownList2(File Type)" '( 5))
(cx-gui-do cx-activate-item "Export*Table1*Table1*DropDownList2(File Type)")
(cx-gui-do cx-activate-item "Export*Table1*Table2*Table3*List1(Surfaces)")
(cx-gui-do cx-set-list-selections "Export*Table1*Table2*Table3*List1(Surfaces)" '( 0 1 2 3))
(cx-gui-do cx-activate-item "Export*Table1*Table2*Table3*List1(Surfaces)")
(cx-gui-do cx-activate-item "Export*Table1*Table2*Table4*List1(Quantities)")
(cx-gui-do cx-set-list-selections "Export*Table1*Table2*Table4*List1(Quantities)" '( 0 1 2 3 4 5 6 7 8 9 10 11 12 13 14 15 16 17 18 19 20 21 22 23 24 25 26 27 28 29 30 31 32 33 34 35 36 37 38 39 40 41 42 43 44 45 46 47 48 49 50 51 52 53 54 55 56 57 58 59 60 61 62 63 64 65 66 67 68 69 70 71 72 73 74 75 76 77 78 79 80 81 82 83 84 85 86))
(cx-gui-do cx-activate-item "Export*Table1*Table2*Table4*List1(Quantities)")
(cx-gui-do cx-activate-item "Export*PanelButtons*PushButton2(Cancel)")
(cx-gui-do cx-activate-item "MenuBar*ExportSubMenu*Solution Data...")
(cx-gui-do cx-activate-item "Export*PanelButtons*PushButton2(Cancel)")
(cx-gui-do cx-activate-item "MenuBar*WriteSubMenu*Case...")
(cx-gui-do cx-set-file-dialog-entries "Select File" '( "C:/Users/V.Chepuri/OneDrive - Cranfield University/irp/pablo/re_200000/AOA_12/template_medium.cas.h5") "CFF Case Files (*.cas.h5 )")

Writing to 37PCL051:"C:/Users/V.Chepuri/OneDrive - Cranfield University/irp/pablo/re_200000/AOA_12/template_medium.cas.h5" in NODE0 mode and compression level 1 ...
Grouping cells for Laplace smoothing ...
      181070 cells,     4 zones ...
      309160 faces,    14 zones ...
      102461 nodes,     1 zone  ...
  Done.
Done.
(cx-gui-do cx-activate-item "ToolBar*Mesh Display*fl_mesh_svg_graphics_toolbar")
(cx-gui-do cx-activate-item "Mesh Display*Table1*Frame3*Frame1*List1(Surfaces)")
(cx-gui-do cx-set-list-selections "Mesh Display*Table1*Frame3*Frame1*List1(Surfaces)" '( 0 1 2 3 4 5 6 7 8 9 10 11))
(cx-gui-do cx-activate-item "Mesh Display*Table1*Frame3*Frame1*List1(Surfaces)")
(cx-gui-do cx-activate-item "Mesh Display*PanelButtons*PushButton2(Cancel)")
/exit y

Posting ANSYS Product Improvement Program performance data 
Done.
Auto-Transcript Stop Time:  19:37:11, 12 Aug 2025 GMT Summer Time 
Total Transcript Time: 57 Minute 41 Second.
