Auto-Transcript Start Time:  20:34:55, 13 Aug 2025 GMT Summer Time 
Current Directory: "C:\Users\V.Chepuri\OneDrive - Cranfield University\irp\pablo\GCI\coarse"

              Welcome to ANSYS Fluent 2024 R2

              Copyright 1987-2024 ANSYS, Inc. All Rights Reserved.
              Unauthorized use, distribution or duplication is prohibited.
              This product is subject to U.S. laws governing export and re-export.
              For full Legal Notice, see documentation.

Build Time: May 13 2024 11:28:30 EST  Build Id: 10192  
 
Connected License Server List:	1055@cclic-2.central.cranfield.ac.uk

*********************************************
Info: Your license enables 4-way parallel execution.
For faster simulations, please start the application with the appropriate parallel options.
*********************************************


     --------------------------------------------------------------
     This is an academic version of ANSYS FLUENT. Usage of this product
     license is limited to the terms and conditions specified in your ANSYS
     license form, additional terms section.
     --------------------------------------------------------------
Host spawning Node 0 on machine "37PCL050" (win64).

-------------------------------------------------------------------------------
ID    Hostname  Core  O.S.         PID    Vendor                          
-------------------------------------------------------------------------------
n0    37PCL050  1/28  Windows-x64  20520  Intel(R) Core(TM) i7-14700      
host  37PCL050        Windows-x64  20148  Intel(R) Core(TM) i7-14700      

MPI Option Selected: intel
-------------------------------------------------------------------------------

Cleanup script file is C:\\Users\\V.Chepuri\\OneDrive - Cranfield University\\irp\\pablo\\GCI\\coarse\\cleanup-fluent-37PCL050-20148.bat

Posting ANSYS Product Improvement Program startup data
Done.

> (cx-gui-do cx-activate-item "Key Behavioral Changes*PanelButtons*PushButton1(OK)")
(cx-gui-do cx-activate-item "MenuBar*ReadSubMenu*Case...")
(cx-gui-do cx-set-file-dialog-entries "Select File" '( "template_medium.cas.h5") "CFF Case Files (*.cas.h5 *.msh.h5 *.MSH.h5 )")
Fast-loading "C:\PROGRA~1\ANSYSI~1\v242\fluent\fluent24.2.0\\addons\afd\lib\hdfio.bin"
Done.

37PCL050 has other FLUENT parallel processes running.                       Process affinity not being set.

Reading from 37PCL050:"C:/Users/V.Chepuri/OneDrive - Cranfield University/irp/pablo/GCI/coarse/template_medium.cas.h5" in NODE0 mode ...
  Reading mesh ...
       71210 cells,     3 cell zones ...
          35453 mixed cells,  zone id: 2
          27008 mixed cells,  zone id: 4
           8749 mixed cells,  zone id: 65
      124239 faces,     8 face zones ...
          62852 2D interior faces,  zone id: 3
          45157 2D interior faces,  zone id: 5
             21 2D velocity-inlet faces,  zone id: 6
             19 2D pressure-outlet faces,  zone id: 7
             20 2D velocity-inlet faces,  zone id: 8
            229 2D interior faces,  zone id: 9
            228 2D interior faces,  zone id: 10
          15713 2D parent-face faces,  zone id: 67
       46066 nodes,     1 node zone  ...
  Done.


Building...
     mesh
     materials,
     interface,
     domains,
	mixture
     zones,
	outlet
	inlet
	interior-fluid
	interior-porous
	symmetry
	upper
	lower
	fluid
	porous
WARNING: "Smooth" contours can't be displayed when node-values is set to off. Changing the Coloring type to "Banded".
     parallel,
Done.
(cx-gui-do cx-activate-item "ToolBar*Mesh Display*fl_mesh_svg_graphics_toolbar")
(cx-gui-do cx-activate-item "Mesh Display*PanelButtons*PushButton1(OK)")
(cx-gui-do cx-activate-item "Mesh Display*PanelButtons*PushButton2(Cancel)")
(cx-gui-do cx-activate-item "MenuBar*ReadSubMenu*Journal...")

Reading journal file C:/Users/V.Chepuri/OneDrive - Cranfield University/irp/pablo/GCI/coarse/template.jou...

> ;change to correct dir

file/read-case template_medium.cas.h5 
37PCL050 has other FLUENT parallel processes running.                       Process affinity not being set.

       Clearing partially read grid.

Reading from 37PCL050:"C:\Users\V.Chepuri\OneDrive - Cranfield University\irp\pablo\GCI\coarse\template_medium.cas.h5" in NODE0 mode ...
  Reading mesh ...
       71210 cells,     3 cell zones ...
          35453 mixed cells,  zone id: 2
          27008 mixed cells,  zone id: 4
           8749 mixed cells,  zone id: 65
      124239 faces,     8 face zones ...
          62852 2D interior faces,  zone id: 3
          45157 2D interior faces,  zone id: 5
             21 2D velocity-inlet faces,  zone id: 6
             19 2D pressure-outlet faces,  zone id: 7
             20 2D velocity-inlet faces,  zone id: 8
            229 2D interior faces,  zone id: 9
            228 2D interior faces,  zone id: 10
          15713 2D parent-face faces,  zone id: 67
       46066 nodes,     1 node zone  ...
  Done.


Building...
     mesh
     materials,
     interface,
     domains,
	mixture
     zones,
	outlet
	inlet
	interior-fluid
	interior-porous
	symmetry
	upper
	lower
	fluid
	porous
WARNING: "Smooth" contours can't be displayed when node-values is set to off. Changing the Coloring type to "Banded".
     parallel,
Done.
OK


Overwrite confirmations (/file/set-batch-options ...)
are on -- will therefore ignore the following journal
Error: invalid command: OK


> 
adjoint/                parallel/               server/
define/                 parametric-study/       solve/
display/                plot/                   surface/
exit                    preferences/            views/
file/                   print-license-usage
mesh/                   report/

> 
adjoint/                parallel/               server/
define/                 parametric-study/       solve/
display/                plot/                   surface/
exit                    preferences/            views/
file/                   print-license-usage
mesh/                   report/

> 
adjoint/                parallel/               server/
define/                 parametric-study/       solve/
display/                plot/                   surface/
exit                    preferences/            views/
file/                   print-license-usage
mesh/                   report/

> ;run simulation
solve/initialize/initialize-flow

> solve/iterate 2000

  iter  continuity  x-velocity  y-velocity     time/iter
     1  1.0000e+00  1.0588e-04  1.6288e-02  0:33:19 1999
     2  9.6332e-01  2.8329e-04  1.2342e-02  0:26:38 1998
     3  5.6398e-01  2.5682e-04  9.2124e-03  0:21:18 1997
     4  3.7929e-01  2.1525e-04  6.3476e-03  0:17:02 1996
     5  2.7011e-01  1.7760e-04  4.0149e-03  0:20:16 1995
     6  2.0451e-01  1.5226e-04  2.3582e-03  0:16:12 1994
     7  1.6336e-01  1.3093e-04  1.3121e-03  0:12:58 1993
     8  1.3427e-01  1.0843e-04  7.0017e-04  0:10:22 1992
     9  1.1436e-01  9.1609e-05  3.6637e-04  0:08:17 1991
    10  9.6617e-02  7.7372e-05  1.8991e-04  0:06:38 1990
    11  8.1235e-02  6.5014e-05  9.8383e-05  0:11:56 1989

  iter  continuity  x-velocity  y-velocity     time/iter
    12  6.8864e-02  5.4912e-05  5.1738e-05  0:09:32 1988
    13  5.8863e-02  4.6842e-05  2.8191e-05  0:07:38 1987
    14  5.0564e-02  4.0164e-05  1.6283e-05  0:06:06 1986
    15  4.3892e-02  3.4432e-05  1.0228e-05  0:04:53 1985
    16  3.8448e-02  2.9590e-05  7.1069e-06  0:03:54 1984
    17  3.3891e-02  2.5540e-05  5.4613e-06  0:03:07 1983
    18  3.0022e-02  2.2162e-05  4.5320e-06  0:02:30 1982
    19  2.6691e-02  1.9393e-05  3.9648e-06  0:08:36 1981
    20  2.3700e-02  1.7045e-05  3.5256e-06  0:06:52 1980
    21  2.1080e-02  1.4910e-05  3.1701e-06  0:05:30 1979
    22  1.8736e-02  1.2965e-05  2.8704e-06  0:04:24 1978

  iter  continuity  x-velocity  y-velocity     time/iter
    23  1.6676e-02  1.1281e-05  2.5959e-06  0:03:31 1977
    24  1.4906e-02  9.8856e-06  2.3596e-06  0:02:49 1976
    25  1.3317e-02  8.5797e-06  2.1605e-06  0:02:15 1975
    26  1.1930e-02  7.4591e-06  1.9928e-06  0:01:48 1974
    27  1.0768e-02  6.4901e-06  1.8400e-06  0:01:26 1973
    28  9.7432e-03  5.6595e-06  1.7037e-06  0:07:43 1972
    29  8.8366e-03  4.9526e-06  1.5834e-06  0:06:10 1971
    30  8.0030e-03  4.3444e-06  1.4802e-06  0:04:56 1970
    31  7.2269e-03  3.8136e-06  1.3875e-06  0:03:57 1969
    32  6.5524e-03  3.3560e-06  1.3042e-06  0:03:09 1968
    33  5.9593e-03  2.9746e-06  1.2320e-06  0:02:31 1967

  iter  continuity  x-velocity  y-velocity     time/iter
    34  5.4332e-03  2.6473e-06  1.1654e-06  0:02:01 1966
    35  4.9823e-03  2.3726e-06  1.1054e-06  0:01:37 1965
    36  4.5763e-03  2.1384e-06  1.0508e-06  0:01:17 1964
    37  4.2242e-03  1.9323e-06  1.0026e-06  0:07:35 1963
    38  3.9155e-03  1.7553e-06  9.5953e-07  0:06:03 1962
    39  3.6533e-03  1.6057e-06  9.2096e-07  0:04:51 1961
    40  3.4247e-03  1.4783e-06  8.8680e-07  0:03:52 1960
    41  3.2226e-03  1.3672e-06  8.5626e-07  0:03:06 1959
    42  3.0488e-03  1.2705e-06  8.2832e-07  0:02:29 1958
    43  2.8912e-03  1.1809e-06  8.0342e-07  0:01:59 1957
    44  2.7441e-03  1.1019e-06  7.8108e-07  0:01:35 1956

  iter  continuity  x-velocity  y-velocity     time/iter
    45  2.6085e-03  1.0335e-06  7.5994e-07  0:01:16 1955
    46  2.4805e-03  9.7135e-07  7.3989e-07  0:07:32 1954
    47  2.3657e-03  9.1629e-07  7.2068e-07  0:06:01 1953
    48  2.2649e-03  8.6698e-07  7.0261e-07  0:04:49 1952
    49  2.1736e-03  8.2236e-07  6.8589e-07  0:03:51 1951
    50  2.0914e-03  7.8232e-07  6.7009e-07  0:03:05 1950
    51  2.0156e-03  7.4629e-07  6.5510e-07  0:02:28 1949
    52  1.9459e-03  7.1336e-07  6.4098e-07  0:01:58 1948
    53  1.8824e-03  6.8335e-07  6.2766e-07  0:01:34 1947
    54  1.8229e-03  6.5631e-07  6.1506e-07  0:01:15 1946
    55  1.7673e-03  6.3223e-07  6.0290e-07  0:07:29 1945

  iter  continuity  x-velocity  y-velocity     time/iter
    56  1.7151e-03  6.1070e-07  5.9116e-07  0:05:59 1944
    57  1.6616e-03  5.8978e-07  5.7974e-07  0:04:47 1943
    58  1.6113e-03  5.7050e-07  5.6862e-07  0:03:50 1942
    59  1.5644e-03  5.5259e-07  5.5791e-07  0:03:04 1941
    60  1.5217e-03  5.3598e-07  5.4776e-07  0:02:27 1940
    61  1.4791e-03  5.1690e-07  5.3829e-07  0:08:25 1939
    62  1.4344e-03  4.9667e-07  5.2895e-07  0:06:44 1938
    63  1.3934e-03  4.7676e-07  5.1995e-07  0:05:23 1937
    64  1.3570e-03  4.5925e-07  5.1111e-07  0:04:18 1936
    65  1.3230e-03  4.4342e-07  5.0255e-07  0:03:27 1935
    66  1.2914e-03  4.2878e-07  4.9414e-07  0:02:45 1934

  iter  continuity  x-velocity  y-velocity     time/iter
    67  1.2613e-03  4.1526e-07  4.8603e-07  0:02:12 1933
    68  1.2325e-03  4.0303e-07  4.7813e-07  0:01:46 1932
    69  1.2054e-03  3.9179e-07  4.7045e-07  0:01:24 1931
    70  1.1795e-03  3.8120e-07  4.6297e-07  0:01:07 1930
    71  1.1545e-03  3.7110e-07  4.5573e-07  0:07:20 1929
    72  1.1307e-03  3.6152e-07  4.4878e-07  0:05:52 1928
    73  1.1079e-03  3.5222e-07  4.4209e-07  0:04:41 1927
    74  1.0863e-03  3.4326e-07  4.3562e-07  0:03:45 1926
    75  1.0656e-03  3.3460e-07  4.2933e-07  0:03:00 1925
    76  1.0458e-03  3.2613e-07  4.2328e-07  0:02:24 1924
    77  1.0266e-03  3.1791e-07  4.1742e-07  0:01:55 1923

  iter  continuity  x-velocity  y-velocity     time/iter
    78  1.0080e-03  3.0998e-07  4.1172e-07  0:01:32 1922
    79  9.8984e-04  3.0239e-07  4.0616e-07  0:07:38 1921
    80  9.7228e-04  2.9516e-07  4.0074e-07  0:06:06 1920
    81  9.5540e-04  2.8824e-07  3.9547e-07  0:04:53 1919
    82  9.3920e-04  2.8171e-07  3.9033e-07  0:03:54 1918
    83  9.2386e-04  2.7565e-07  3.8526e-07  0:03:07 1917
    84  9.0914e-04  2.6997e-07  3.8028e-07  0:02:30 1916
    85  8.9515e-04  2.6475e-07  3.7541e-07  0:02:00 1915
    86  8.8216e-04  2.5992e-07  3.7068e-07  0:01:36 1914
    87  8.6994e-04  2.5544e-07  3.6610e-07  0:01:16 1913
    88  8.5834e-04  2.5130e-07  3.6167e-07  0:07:24 1912

  iter  continuity  x-velocity  y-velocity     time/iter
    89  8.4729e-04  2.4753e-07  3.5738e-07  0:05:55 1911
    90  8.3482e-04  2.4123e-07  3.5323e-07  0:04:44 1910
    91  8.2105e-04  2.3401e-07  3.4921e-07  0:03:47 1909
    92  8.0941e-04  2.2785e-07  3.4530e-07  0:03:01 1908
    93  7.9824e-04  2.2242e-07  3.4138e-07  0:02:25 1907
    94  7.8703e-04  2.1749e-07  3.3748e-07  0:01:56 1906
    95  7.7632e-04  2.1334e-07  3.3369e-07  0:01:33 1905
    96  7.6603e-04  2.0954e-07  3.2998e-07  0:01:14 1904
    97  7.5586e-04  2.0594e-07  3.2629e-07  0:00:59 1903
    98  7.4599e-04  2.0245e-07  3.2265e-07  0:07:08 1902
    99  7.3648e-04  1.9909e-07  3.1913e-07  0:05:42 1901

  iter  continuity  x-velocity  y-velocity     time/iter
   100  7.2752e-04  1.9586e-07  3.1573e-07  0:04:33 1900
   101  7.1870e-04  1.9283e-07  3.1242e-07  0:03:39 1899
   102  7.1011e-04  1.8996e-07  3.0923e-07  0:02:55 1898
   103  7.0179e-04  1.8724e-07  3.0611e-07  0:02:20 1897
   104  6.9377e-04  1.8467e-07  3.0304e-07  0:01:52 1896
   105  6.8612e-04  1.8226e-07  3.0003e-07  0:01:29 1895
   106  6.7885e-04  1.8003e-07  2.9707e-07  0:01:11 1894
   107  6.7207e-04  1.7794e-07  2.9420e-07  0:07:16 1893
   108  6.6562e-04  1.7596e-07  2.9140e-07  0:05:48 1892
   109  6.5942e-04  1.7411e-07  2.8865e-07  0:04:39 1891
   110  6.5353e-04  1.7235e-07  2.8597e-07  0:03:43 1890

  iter  continuity  x-velocity  y-velocity     time/iter
   111  6.4786e-04  1.7067e-07  2.8337e-07  0:02:58 1889
   112  6.4237e-04  1.6904e-07  2.8088e-07  0:02:22 1888
   113  6.3697e-04  1.6747e-07  2.7844e-07  0:01:54 1887
   114  6.3165e-04  1.6593e-07  2.7602e-07  0:07:48 1886
   115  6.2642e-04  1.6446e-07  2.7365e-07  0:06:14 1885
   116  6.2127e-04  1.6301e-07  2.7134e-07  0:04:59 1884
   117  6.1622e-04  1.6160e-07  2.6908e-07  0:03:59 1883
   118  6.1128e-04  1.6022e-07  2.6685e-07  0:03:11 1882
   119  6.0640e-04  1.5887e-07  2.6467e-07  0:02:33 1881
   120  6.0159e-04  1.5755e-07  2.6253e-07  0:02:02 1880
   121  5.9687e-04  1.5626e-07  2.6045e-07  0:01:38 1879

  iter  continuity  x-velocity  y-velocity     time/iter
   122  5.9225e-04  1.5500e-07  2.5840e-07  0:01:18 1878
   123  5.8773e-04  1.5376e-07  2.5639e-07  0:07:18 1877
   124  5.8330e-04  1.5254e-07  2.5442e-07  0:05:50 1876
   125  5.7892e-04  1.5136e-07  2.5246e-07  0:04:40 1875
   126  5.7461e-04  1.5019e-07  2.5051e-07  0:03:44 1874
   127  5.7036e-04  1.4904e-07  2.4855e-07  0:02:59 1873
   128  5.6620e-04  1.4792e-07  2.4660e-07  0:02:23 1872
   129  5.6209e-04  1.4681e-07  2.4465e-07  0:01:54 1871
   130  5.5805e-04  1.4573e-07  2.4273e-07  0:01:32 1870
   131  5.5407e-04  1.4464e-07  2.4081e-07  0:01:13 1869
   132  5.5016e-04  1.4357e-07  2.3890e-07  0:07:12 1868

  iter  continuity  x-velocity  y-velocity     time/iter
   133  5.4628e-04  1.4251e-07  2.3699e-07  0:05:45 1867
   134  5.4243e-04  1.4147e-07  2.3509e-07  0:04:36 1866
   135  5.3867e-04  1.4044e-07  2.3322e-07  0:03:41 1865
   136  5.3503e-04  1.3942e-07  2.3140e-07  0:02:57 1864
   137  5.3152e-04  1.3842e-07  2.2964e-07  0:02:21 1863
   138  5.2813e-04  1.3744e-07  2.2793e-07  0:01:53 1862
   139  5.2483e-04  1.3648e-07  2.2627e-07  0:01:30 1861
   140  5.2166e-04  1.3554e-07  2.2466e-07  0:01:12 1860
   141  5.1862e-04  1.3462e-07  2.2308e-07  0:00:58 1859
   142  5.1568e-04  1.3373e-07  2.2154e-07  0:06:58 1858
   143  5.1286e-04  1.3286e-07  2.2005e-07  0:05:34 1857

  iter  continuity  x-velocity  y-velocity     time/iter
   144  5.1018e-04  1.3201e-07  2.1860e-07  0:04:27 1856
   145  5.0761e-04  1.3117e-07  2.1720e-07  0:03:34 1855
   146  5.0513e-04  1.3036e-07  2.1583e-07  0:02:51 1854
   147  5.0266e-04  1.2956e-07  2.1448e-07  0:02:17 1853
   148  5.0017e-04  1.2879e-07  2.1314e-07  0:01:49 1852
   149  4.9766e-04  1.2804e-07  2.1179e-07  0:01:27 1851
   150  4.9517e-04  1.2729e-07  2.1046e-07  0:01:10 1850
   151  4.9271e-04  1.2656e-07  2.0917e-07  0:07:06 1849
   152  4.9025e-04  1.2584e-07  2.0791e-07  0:05:40 1848
   153  4.8781e-04  1.2512e-07  2.0668e-07  0:04:32 1847
   154  4.8537e-04  1.2442e-07  2.0545e-07  0:03:38 1846

  iter  continuity  x-velocity  y-velocity     time/iter
   155  4.8291e-04  1.2372e-07  2.0422e-07  0:02:54 1845
   156  4.8035e-04  1.2303e-07  2.0297e-07  0:02:19 1844
   157  4.7770e-04  1.2234e-07  2.0171e-07  0:01:51 1843
   158  4.7499e-04  1.2164e-07  2.0043e-07  0:07:37 1842
   159  4.7225e-04  1.2093e-07  1.9913e-07  0:06:06 1841
   160  4.6951e-04  1.2022e-07  1.9785e-07  0:04:52 1840
   161  4.6672e-04  1.1951e-07  1.9658e-07  0:03:54 1839
   162  4.6398e-04  1.1879e-07  1.9533e-07  0:03:07 1838
   163  4.6130e-04  1.1807e-07  1.9409e-07  0:02:29 1837
   164  4.5872e-04  1.1737e-07  1.9287e-07  0:01:59 1836
   165  4.5626e-04  1.1667e-07  1.9168e-07  0:01:36 1835

  iter  continuity  x-velocity  y-velocity     time/iter
   166  4.5387e-04  1.1598e-07  1.9052e-07  0:01:16 1834
   167  4.5151e-04  1.1530e-07  1.8937e-07  0:01:01 1833
   168  4.4915e-04  1.1464e-07  1.8823e-07  0:06:55 1832
   169  4.4679e-04  1.1398e-07  1.8710e-07  0:05:32 1831
   170  4.4438e-04  1.1332e-07  1.8595e-07  0:04:25 1830
   171  4.4203e-04  1.1267e-07  1.8480e-07  0:03:32 1829
   172  4.3974e-04  1.1203e-07  1.8364e-07  0:02:50 1828
   173  4.3744e-04  1.1138e-07  1.8250e-07  0:02:16 1827
   174  4.3514e-04  1.1068e-07  1.8135e-07  0:01:48 1826
   175  4.3294e-04  1.1001e-07  1.8022e-07  0:01:27 1825
   176  4.3084e-04  1.0938e-07  1.7910e-07  0:01:09 1824

  iter  continuity  x-velocity  y-velocity     time/iter
   177  4.2879e-04  1.0877e-07  1.7802e-07  0:07:00 1823
   178  4.2672e-04  1.0816e-07  1.7695e-07  0:05:36 1822
   179  4.2465e-04  1.0758e-07  1.7590e-07  0:04:29 1821
   180  4.2263e-04  1.0700e-07  1.7486e-07  0:03:35 1820
   181  4.2066e-04  1.0643e-07  1.7384e-07  0:02:52 1819
   182  4.1877e-04  1.0587e-07  1.7285e-07  0:02:17 1818
   183  4.1702e-04  1.0532e-07  1.7188e-07  0:01:50 1817
   184  4.1531e-04  1.0477e-07  1.7096e-07  0:01:28 1816
   185  4.1359e-04  1.0423e-07  1.7005e-07  0:01:10 1815
   186  4.1184e-04  1.0371e-07  1.6915e-07  0:00:56 1814
   187  4.1004e-04  1.0319e-07  1.6823e-07  0:06:47 1813

  iter  continuity  x-velocity  y-velocity     time/iter
   188  4.0823e-04  1.0266e-07  1.6729e-07  0:05:26 1812
   189  4.0638e-04  1.0213e-07  1.6634e-07  0:04:20 1811
   190  4.0449e-04  1.0160e-07  1.6538e-07  0:03:28 1810
   191  4.0256e-04  1.0105e-07  1.6444e-07  0:02:47 1809
   192  4.0058e-04  1.0051e-07  1.6349e-07  0:02:13 1808
   193  3.9854e-04  9.9964e-08  1.6255e-07  0:01:46 1807
   194  3.9652e-04  9.9420e-08  1.6162e-07  0:01:25 1806
   195  3.9454e-04  9.8874e-08  1.6069e-07  0:01:08 1805
   196  3.9262e-04  9.8334e-08  1.5978e-07  0:06:55 1804
   197  3.9077e-04  9.7801e-08  1.5888e-07  0:05:32 1803
   198  3.8898e-04  9.7276e-08  1.5801e-07  0:04:25 1802

  iter  continuity  x-velocity  y-velocity     time/iter
   199  3.8726e-04  9.6763e-08  1.5714e-07  0:03:32 1801
   200  3.8558e-04  9.6264e-08  1.5630e-07  0:02:50 1800
   201  3.8389e-04  9.5775e-08  1.5546e-07  0:02:16 1799
   202  3.8223e-04  9.5291e-08  1.5463e-07  0:01:48 1798
   203  3.8060e-04  9.4811e-08  1.5381e-07  0:01:27 1797
   204  3.7896e-04  9.4338e-08  1.5300e-07  0:01:09 1796
   205  3.7734e-04  9.3871e-08  1.5220e-07  0:00:55 1795
   206  3.7574e-04  9.3410e-08  1.5141e-07  0:06:43 1794
   207  3.7416e-04  9.2953e-08  1.5062e-07  0:05:22 1793
   208  3.7260e-04  9.2500e-08  1.4985e-07  0:04:18 1792
   209  3.7108e-04  9.2052e-08  1.4908e-07  0:03:26 1791

  iter  continuity  x-velocity  y-velocity     time/iter
   210  3.6957e-04  9.1610e-08  1.4833e-07  0:02:45 1790
   211  3.6806e-04  9.1173e-08  1.4759e-07  0:02:12 1789
   212  3.6655e-04  9.0739e-08  1.4685e-07  0:01:45 1788
   213  3.6503e-04  9.0311e-08  1.4612e-07  0:07:22 1787
   214  3.6353e-04  8.9888e-08  1.4540e-07  0:05:53 1786
   215  3.6204e-04  8.9470e-08  1.4468e-07  0:04:42 1785
   216  3.6059e-04  8.9057e-08  1.4397e-07  0:03:46 1784
   217  3.5916e-04  8.8651e-08  1.4327e-07  0:03:00 1783
   218  3.5774e-04  8.8251e-08  1.4258e-07  0:02:24 1782
   219  3.5634e-04  8.7857e-08  1.4191e-07  0:01:55 1781
   220  3.5494e-04  8.7468e-08  1.4125e-07  0:01:32 1780

  iter  continuity  x-velocity  y-velocity     time/iter
   221  3.5356e-04  8.7082e-08  1.4059e-07  0:01:14 1779
   222  3.5219e-04  8.6701e-08  1.3993e-07  0:06:55 1778
   223  3.5083e-04  8.6324e-08  1.3928e-07  0:05:31 1777
   224  3.4949e-04  8.5949e-08  1.3864e-07  0:04:25 1776
   225  3.4815e-04  8.5577e-08  1.3801e-07  0:03:32 1775
   226  3.4682e-04  8.5208e-08  1.3738e-07  0:02:49 1774
   227  3.4550e-04  8.4839e-08  1.3675e-07  0:02:15 1773
   228  3.4418e-04  8.4470e-08  1.3612e-07  0:01:48 1772
   229  3.4287e-04  8.4102e-08  1.3549e-07  0:01:27 1771
   230  3.4158e-04  8.3740e-08  1.3486e-07  0:01:09 1770
   231  3.4028e-04  8.3372e-08  1.3423e-07  0:06:49 1769

  iter  continuity  x-velocity  y-velocity     time/iter
   232  3.3899e-04  8.3005e-08  1.3361e-07  0:05:27 1768
   233  3.3771e-04  8.2640e-08  1.3299e-07  0:04:22 1767
   234  3.3644e-04  8.2277e-08  1.3238e-07  0:03:29 1766
   235  3.3517e-04  8.1917e-08  1.3176e-07  0:02:47 1765
   236  3.3391e-04  8.1560e-08  1.3116e-07  0:02:14 1764
   237  3.3265e-04  8.1207e-08  1.3055e-07  0:01:47 1763
   238  3.3141e-04  8.0857e-08  1.2996e-07  0:01:25 1762
   239  3.3020e-04  8.0511e-08  1.2938e-07  0:01:08 1761
   240  3.2899e-04  8.0169e-08  1.2880e-07  0:00:55 1760
   241  3.2779e-04  7.9830e-08  1.2823e-07  0:06:35 1759
   242  3.2661e-04  7.9497e-08  1.2766e-07  0:05:16 1758

  iter  continuity  x-velocity  y-velocity     time/iter
   243  3.2544e-04  7.9168e-08  1.2710e-07  0:04:13 1757
   244  3.2431e-04  7.8845e-08  1.2653e-07  0:03:22 1756
   245  3.2320e-04  7.8525e-08  1.2598e-07  0:02:42 1755
   246  3.2208e-04  7.8209e-08  1.2543e-07  0:02:09 1754
   247  3.2097e-04  7.7895e-08  1.2488e-07  0:01:43 1753
   248  3.1986e-04  7.7582e-08  1.2434e-07  0:01:23 1752
   249  3.1876e-04  7.7271e-08  1.2381e-07  0:01:06 1751
   250  3.1768e-04  7.6962e-08  1.2328e-07  0:00:53 1750
   251  3.1660e-04  7.6656e-08  1.2275e-07  0:06:32 1749
   252  3.1552e-04  7.6351e-08  1.2223e-07  0:05:13 1748
   253  3.1445e-04  7.6049e-08  1.2171e-07  0:04:11 1747

  iter  continuity  x-velocity  y-velocity     time/iter
   254  3.1339e-04  7.5748e-08  1.2120e-07  0:03:20 1746
   255  3.1234e-04  7.5449e-08  1.2068e-07  0:02:40 1745
   256  3.1130e-04  7.5151e-08  1.2017e-07  0:02:08 1744
   257  3.1026e-04  7.4854e-08  1.1965e-07  0:07:31 1743
   258  3.0922e-04  7.4558e-08  1.1914e-07  0:06:01 1742
   259  3.0819e-04  7.4263e-08  1.1863e-07  0:04:48 1741
   260  3.0716e-04  7.3969e-08  1.1813e-07  0:03:51 1740
   261  3.0614e-04  7.3676e-08  1.1763e-07  0:03:04 1739
   262  3.0512e-04  7.3385e-08  1.1714e-07  0:02:27 1738
   263  3.0410e-04  7.3097e-08  1.1664e-07  0:01:58 1737
   264  3.0308e-04  7.2809e-08  1.1615e-07  0:01:34 1736

  iter  continuity  x-velocity  y-velocity     time/iter
   265  3.0205e-04  7.2524e-08  1.1566e-07  0:01:15 1735
   266  3.0101e-04  7.2240e-08  1.1516e-07  0:01:00 1734
   267  2.9997e-04  7.1955e-08  1.1466e-07  0:06:35 1733
   268  2.9893e-04  7.1670e-08  1.1416e-07  0:05:16 1732
   269  2.9792e-04  7.1386e-08  1.1365e-07  0:04:12 1731
   270  2.9692e-04  7.1103e-08  1.1317e-07  0:03:22 1730
   271  2.9592e-04  7.0821e-08  1.1269e-07  0:02:41 1729
   272  2.9493e-04  7.0541e-08  1.1222e-07  0:02:09 1728
   273  2.9395e-04  7.0264e-08  1.1175e-07  0:01:43 1727
   274  2.9298e-04  6.9989e-08  1.1129e-07  0:01:22 1726
   275  2.9202e-04  6.9720e-08  1.1083e-07  0:01:06 1725

  iter  continuity  x-velocity  y-velocity     time/iter
   276  2.9112e-04  6.9456e-08  1.1039e-07  0:00:53 1724
   277  2.9024e-04  6.9195e-08  1.0996e-07  0:06:27 1723
   278  2.8934e-04  6.8936e-08  1.0953e-07  0:05:09 1722
   279  2.8843e-04  6.8678e-08  1.0910e-07  0:04:07 1721
   280  2.8750e-04  6.8423e-08  1.0867e-07  0:03:18 1720
   281  2.8658e-04  6.8170e-08  1.0824e-07  0:02:38 1719
   282  2.8565e-04  6.7919e-08  1.0781e-07  0:02:06 1718
   283  2.8471e-04  6.7670e-08  1.0738e-07  0:01:41 1717
   284  2.8378e-04  6.7422e-08  1.0696e-07  0:01:21 1716
   285  2.8285e-04  6.7176e-08  1.0653e-07  0:01:05 1715
   286  2.8193e-04  6.6931e-08  1.0611e-07  0:06:34 1714

  iter  continuity  x-velocity  y-velocity     time/iter
   287  2.8101e-04  6.6688e-08  1.0569e-07  0:05:15 1713
   288  2.8010e-04  6.6447e-08  1.0527e-07  0:04:12 1712
   289  2.7919e-04  6.6209e-08  1.0485e-07  0:03:22 1711
   290  2.7829e-04  6.5972e-08  1.0444e-07  0:02:41 1710
   291  2.7739e-04  6.5736e-08  1.0403e-07  0:02:09 1709
   292  2.7651e-04  6.5501e-08  1.0362e-07  0:01:43 1708
   293  2.7563e-04  6.5267e-08  1.0322e-07  0:01:22 1707
   294  2.7477e-04  6.5034e-08  1.0281e-07  0:01:06 1706
   295  2.7392e-04  6.4803e-08  1.0241e-07  0:00:53 1705
   296  2.7308e-04  6.4573e-08  1.0202e-07  0:06:23 1704
   297  2.7226e-04  6.4346e-08  1.0163e-07  0:05:06 1703

  iter  continuity  x-velocity  y-velocity     time/iter
   298  2.7144e-04  6.4121e-08  1.0124e-07  0:04:05 1702
   299  2.7062e-04  6.3899e-08  1.0085e-07  0:03:16 1701
   300  2.6980e-04  6.3679e-08  1.0047e-07  0:02:36 1700
   301  2.6898e-04  6.3461e-08  1.0010e-07  0:02:05 1699
   302  2.6816e-04  6.3242e-08  9.9723e-08  0:01:40 1698
   303  2.6731e-04  6.3003e-08  9.9350e-08  0:06:59 1697
   304  2.6645e-04  6.2757e-08  9.8978e-08  0:05:35 1696
   305  2.6560e-04  6.2511e-08  9.8607e-08  0:04:28 1695
   306  2.6475e-04  6.2264e-08  9.8237e-08  0:03:34 1694
   307  2.6390e-04  6.2019e-08  9.7867e-08  0:02:51 1693
   308  2.6304e-04  6.1775e-08  9.7498e-08  0:02:17 1692

  iter  continuity  x-velocity  y-velocity     time/iter
   309  2.6219e-04  6.1534e-08  9.7131e-08  0:01:50 1691
   310  2.6135e-04  6.1296e-08  9.6764e-08  0:01:28 1690
   311  2.6051e-04  6.1061e-08  9.6396e-08  0:01:10 1689
   312  2.5968e-04  6.0827e-08  9.6029e-08  0:06:34 1688
   313  2.5885e-04  6.0597e-08  9.5663e-08  0:05:15 1687
   314  2.5803e-04  6.0369e-08  9.5299e-08  0:04:12 1686
   315  2.5721e-04  6.0143e-08  9.4936e-08  0:03:21 1685
   316  2.5639e-04  5.9918e-08  9.4575e-08  0:02:41 1684
   317  2.5558e-04  5.9695e-08  9.4215e-08  0:02:09 1683
   318  2.5476e-04  5.9473e-08  9.3858e-08  0:01:43 1682
   319  2.5395e-04  5.9251e-08  9.3501e-08  0:01:22 1681

  iter  continuity  x-velocity  y-velocity     time/iter
   320  2.5314e-04  5.9031e-08  9.3146e-08  0:01:06 1680
   321  2.5233e-04  5.8813e-08  9.2793e-08  0:00:53 1679
   322  2.5153e-04  5.8595e-08  9.2441e-08  0:06:18 1678
   323  2.5074e-04  5.8379e-08  9.2092e-08  0:05:02 1677
   324  2.4995e-04  5.8164e-08  9.1744e-08  0:04:01 1676
   325  2.4917e-04  5.7951e-08  9.1399e-08  0:03:13 1675
   326  2.4839e-04  5.7738e-08  9.1057e-08  0:02:34 1674
   327  2.4759e-04  5.7527e-08  9.0713e-08  0:02:03 1673
   328  2.4678e-04  5.7316e-08  9.0365e-08  0:01:39 1672
   329  2.4596e-04  5.7104e-08  9.0020e-08  0:01:19 1671
   330  2.4516e-04  5.6893e-08  8.9678e-08  0:01:03 1670

  iter  continuity  x-velocity  y-velocity     time/iter
   331  2.4435e-04  5.6682e-08  8.9338e-08  0:06:24 1669
   332  2.4356e-04  5.6473e-08  8.9001e-08  0:05:07 1668
   333  2.4278e-04  5.6265e-08  8.8667e-08  0:04:06 1667
   334  2.4200e-04  5.6059e-08  8.8335e-08  0:03:16 1666
   335  2.4124e-04  5.5854e-08  8.8005e-08  0:02:37 1665
   336  2.4047e-04  5.5650e-08  8.7678e-08  0:02:06 1664
   337  2.3972e-04  5.5449e-08  8.7353e-08  0:01:40 1663
   338  2.3898e-04  5.5249e-08  8.7028e-08  0:01:20 1662
   339  2.3824e-04  5.5051e-08  8.6705e-08  0:01:04 1661
   340  2.3750e-04  5.4855e-08  8.6384e-08  0:00:51 1660
   341  2.3676e-04  5.4661e-08  8.6065e-08  0:06:13 1659

  iter  continuity  x-velocity  y-velocity     time/iter
   342  2.3603e-04  5.4468e-08  8.5749e-08  0:04:58 1658
   343  2.3530e-04  5.4277e-08  8.5434e-08  0:03:58 1657
   344  2.3457e-04  5.4087e-08  8.5122e-08  0:03:11 1656
   345  2.3385e-04  5.3898e-08  8.4811e-08  0:02:32 1655
   346  2.3313e-04  5.3711e-08  8.4501e-08  0:02:02 1654
   347  2.3242e-04  5.3525e-08  8.4191e-08  0:01:37 1653
   348  2.3171e-04  5.3339e-08  8.3883e-08  0:01:18 1652
   349  2.3101e-04  5.3154e-08  8.3577e-08  0:01:02 1651
   350  2.3030e-04  5.2970e-08  8.3272e-08  0:06:20 1650
   351  2.2960e-04  5.2788e-08  8.2970e-08  0:05:04 1649
   352  2.2891e-04  5.2607e-08  8.2670e-08  0:04:03 1648

  iter  continuity  x-velocity  y-velocity     time/iter
   353  2.2822e-04  5.2428e-08  8.2374e-08  0:03:14 1647
   354  2.2753e-04  5.2250e-08  8.2080e-08  0:02:35 1646
   355  2.2685e-04  5.2073e-08  8.1788e-08  0:02:04 1645
   356  2.2617e-04  5.1898e-08  8.1499e-08  0:01:39 1644
   357  2.2549e-04  5.1724e-08  8.1212e-08  0:06:48 1643
   358  2.2482e-04  5.1551e-08  8.0927e-08  0:05:26 1642
   359  2.2415e-04  5.1380e-08  8.0644e-08  0:04:21 1641
   360  2.2348e-04  5.1209e-08  8.0363e-08  0:03:28 1640
   361  2.2282e-04  5.1040e-08  8.0085e-08  0:02:47 1639
   362  2.2217e-04  5.0871e-08  7.9808e-08  0:02:13 1638
   363  2.2152e-04  5.0704e-08  7.9534e-08  0:01:47 1637

  iter  continuity  x-velocity  y-velocity     time/iter
   364  2.2087e-04  5.0538e-08  7.9264e-08  0:01:25 1636
   365  2.2024e-04  5.0373e-08  7.8997e-08  0:06:35 1635
   366  2.1961e-04  5.0211e-08  7.8731e-08  0:05:16 1634
   367  2.1899e-04  5.0050e-08  7.8467e-08  0:04:13 1633
   368  2.1836e-04  4.9890e-08  7.8203e-08  0:03:22 1632
   369  2.1774e-04  4.9732e-08  7.7942e-08  0:02:41 1631
   370  2.1712e-04  4.9574e-08  7.7682e-08  0:02:09 1630
   371  2.1651e-04  4.9417e-08  7.7426e-08  0:01:43 1629
   372  2.1589e-04  4.9261e-08  7.7171e-08  0:01:23 1628
   373  2.1528e-04  4.9105e-08  7.6918e-08  0:01:06 1627
   374  2.1464e-04  4.8950e-08  7.6660e-08  0:06:18 1626

  iter  continuity  x-velocity  y-velocity     time/iter
   375  2.1399e-04  4.8793e-08  7.6401e-08  0:05:02 1625
   376  2.1334e-04  4.8635e-08  7.6141e-08  0:04:02 1624
   377  2.1270e-04  4.8478e-08  7.5883e-08  0:03:13 1623
   378  2.1206e-04  4.8322e-08  7.5626e-08  0:02:34 1622
   379  2.1142e-04  4.8167e-08  7.5372e-08  0:02:03 1621
   380  2.1079e-04  4.8013e-08  7.5120e-08  0:01:39 1620
   381  2.1017e-04  4.7859e-08  7.4868e-08  0:01:19 1619
   382  2.0955e-04  4.7708e-08  7.4620e-08  0:01:03 1618
   383  2.0894e-04  4.7557e-08  7.4374e-08  0:00:50 1617
   384  2.0833e-04  4.7407e-08  7.4130e-08  0:06:04 1616
   385  2.0773e-04  4.7259e-08  7.3889e-08  0:04:51 1615

  iter  continuity  x-velocity  y-velocity     time/iter
   386  2.0713e-04  4.7111e-08  7.3650e-08  0:03:52 1614
   387  2.0653e-04  4.6964e-08  7.3413e-08  0:03:06 1613
   388  2.0593e-04  4.6817e-08  7.3177e-08  0:02:29 1612
   389  2.0535e-04  4.6671e-08  7.2940e-08  0:01:59 1611
   390  2.0476e-04  4.6526e-08  7.2707e-08  0:01:35 1610
   391  2.0418e-04  4.6381e-08  7.2475e-08  0:01:16 1609
   392  2.0361e-04  4.6238e-08  7.2245e-08  0:01:01 1608
   393  2.0303e-04  4.6096e-08  7.2016e-08  0:06:10 1607
   394  2.0246e-04  4.5954e-08  7.1789e-08  0:04:56 1606
   395  2.0189e-04  4.5814e-08  7.1563e-08  0:03:56 1605
   396  2.0132e-04  4.5674e-08  7.1340e-08  0:03:09 1604

  iter  continuity  x-velocity  y-velocity     time/iter
   397  2.0076e-04  4.5536e-08  7.1119e-08  0:02:31 1603
   398  2.0020e-04  4.5399e-08  7.0899e-08  0:02:01 1602
   399  1.9964e-04  4.5262e-08  7.0681e-08  0:01:37 1601
   400  1.9908e-04  4.5127e-08  7.0463e-08  0:06:37 1600
   401  1.9853e-04  4.4992e-08  7.0248e-08  0:05:18 1599
   402  1.9798e-04  4.4858e-08  7.0033e-08  0:04:14 1598
   403  1.9743e-04  4.4725e-08  6.9820e-08  0:03:23 1597
   404  1.9688e-04  4.4592e-08  6.9608e-08  0:02:42 1596
   405  1.9633e-04  4.4460e-08  6.9398e-08  0:02:10 1595
   406  1.9579e-04  4.4329e-08  6.9189e-08  0:01:44 1594
   407  1.9525e-04  4.4199e-08  6.8983e-08  0:01:23 1593

  iter  continuity  x-velocity  y-velocity     time/iter
   408  1.9471e-04  4.4070e-08  6.8778e-08  0:01:06 1592
   409  1.9418e-04  4.3942e-08  6.8575e-08  0:06:11 1591
   410  1.9365e-04  4.3814e-08  6.8374e-08  0:04:57 1590
   411  1.9313e-04  4.3688e-08  6.8174e-08  0:03:57 1589
   412  1.9261e-04  4.3562e-08  6.7975e-08  0:03:10 1588
   413  1.9209e-04  4.3437e-08  6.7777e-08  0:02:32 1587
   414  1.9157e-04  4.3314e-08  6.7580e-08  0:02:01 1586
   415  1.9106e-04  4.3191e-08  6.7380e-08  0:01:37 1585
   416  1.9054e-04  4.3068e-08  6.7179e-08  0:01:18 1584
   417  1.9002e-04  4.2947e-08  6.6978e-08  0:01:02 1583
   418  1.8951e-04  4.2827e-08  6.6777e-08  0:00:50 1582

  iter  continuity  x-velocity  y-velocity     time/iter
   419  1.8900e-04  4.2708e-08  6.6578e-08  0:05:56 1581
   420  1.8849e-04  4.2590e-08  6.6381e-08  0:04:44 1580
   421  1.8799e-04  4.2473e-08  6.6186e-08  0:03:47 1579
   422  1.8749e-04  4.2357e-08  6.5991e-08  0:03:02 1578
   423  1.8700e-04  4.2243e-08  6.5797e-08  0:02:25 1577
   424  1.8652e-04  4.2130e-08  6.5605e-08  0:01:56 1576
   425  1.8604e-04  4.2019e-08  6.5412e-08  0:01:33 1575
   426  1.8557e-04  4.1910e-08  6.5219e-08  0:01:14 1574
   427  1.8510e-04  4.1804e-08  6.5029e-08  0:00:59 1573
   428  1.8465e-04  4.1700e-08  6.4841e-08  0:00:47 1572
   429  1.8420e-04  4.1599e-08  6.4655e-08  0:05:52 1571

  iter  continuity  x-velocity  y-velocity     time/iter
   430  1.8376e-04  4.1502e-08  6.4469e-08  0:04:42 1570
   431  1.8332e-04  4.1410e-08  6.4283e-08  0:03:45 1569
   432  1.8290e-04  4.1320e-08  6.4098e-08  0:03:00 1568
   433  1.8248e-04  4.1237e-08  6.3915e-08  0:02:24 1567
   434  1.8208e-04  4.1159e-08  6.3734e-08  0:01:55 1566
   435  1.8169e-04  4.1088e-08  6.3555e-08  0:01:32 1565
   436  1.8132e-04  4.1025e-08  6.3377e-08  0:01:14 1564
   437  1.8094e-04  4.0955e-08  6.3202e-08  0:00:59 1563
   438  1.8052e-04  4.0863e-08  6.3028e-08  0:05:59 1562
   439  1.8008e-04  4.0767e-08  6.2855e-08  0:04:47 1561
   440  1.7966e-04  4.0670e-08  6.2681e-08  0:03:50 1560

  iter  continuity  x-velocity  y-velocity     time/iter
   441  1.7923e-04  4.0570e-08  6.2509e-08  0:03:04 1559
   442  1.7879e-04  4.0472e-08  6.2336e-08  0:02:27 1558
   443  1.7834e-04  4.0365e-08  6.2164e-08  0:01:57 1557
   444  1.7792e-04  4.0250e-08  6.1992e-08  0:01:34 1556
   445  1.7751e-04  4.0131e-08  6.1819e-08  0:01:15 1555
   446  1.7708e-04  4.0008e-08  6.1645e-08  0:01:00 1554
   447  1.7663e-04  3.9881e-08  6.1471e-08  0:00:48 1553
   448  1.7618e-04  3.9750e-08  6.1298e-08  0:05:49 1552
   449  1.7570e-04  3.9617e-08  6.1124e-08  0:04:39 1551
   450  1.7521e-04  3.9484e-08  6.0946e-08  0:03:43 1550
   451  1.7471e-04  3.9350e-08  6.0765e-08  0:02:58 1549

  iter  continuity  x-velocity  y-velocity     time/iter
   452  1.7419e-04  3.9215e-08  6.0580e-08  0:02:22 1548
   453  1.7365e-04  3.9083e-08  6.0392e-08  0:01:54 1547
   454  1.7311e-04  3.8951e-08  6.0203e-08  0:01:31 1546
   455  1.7257e-04  3.8818e-08  6.0010e-08  0:06:22 1545
   456  1.7201e-04  3.8683e-08  5.9816e-08  0:05:05 1544
   457  1.7144e-04  3.8548e-08  5.9620e-08  0:04:04 1543
   458  1.7087e-04  3.8413e-08  5.9422e-08  0:03:15 1542
   459  1.7029e-04  3.8277e-08  5.9222e-08  0:02:36 1541
   460  1.6971e-04  3.8142e-08  5.9022e-08  0:02:05 1540
   461  1.6914e-04  3.8007e-08  5.8822e-08  0:01:40 1539
   462  1.6857e-04  3.7873e-08  5.8622e-08  0:01:20 1538

  iter  continuity  x-velocity  y-velocity     time/iter
   463  1.6801e-04  3.7740e-08  5.8423e-08  0:01:04 1537
   464  1.6745e-04  3.7608e-08  5.8225e-08  0:05:58 1536
   465  1.6691e-04  3.7479e-08  5.8028e-08  0:04:46 1535
   466  1.6639e-04  3.7354e-08  5.7832e-08  0:03:49 1534
   467  1.6587e-04  3.7231e-08  5.7640e-08  0:03:03 1533
   468  1.6535e-04  3.7110e-08  5.7451e-08  0:02:26 1532
   469  1.6485e-04  3.6991e-08  5.7265e-08  0:01:57 1531
   470  1.6435e-04  3.6873e-08  5.7080e-08  0:01:34 1530
   471  1.6385e-04  3.6756e-08  5.6898e-08  0:01:15 1529
   472  1.6335e-04  3.6641e-08  5.6717e-08  0:01:00 1528
   473  1.6286e-04  3.6527e-08  5.6540e-08  0:05:53 1527

  iter  continuity  x-velocity  y-velocity     time/iter
   474  1.6238e-04  3.6414e-08  5.6364e-08  0:04:42 1526
   475  1.6190e-04  3.6302e-08  5.6191e-08  0:03:46 1525
   476  1.6143e-04  3.6190e-08  5.6018e-08  0:03:00 1524
   477  1.6097e-04  3.6080e-08  5.5847e-08  0:02:24 1523
   478  1.6053e-04  3.5971e-08  5.5677e-08  0:01:55 1522
   479  1.6009e-04  3.5863e-08  5.5508e-08  0:01:32 1521
   480  1.5965e-04  3.5755e-08  5.5341e-08  0:01:14 1520
   481  1.5923e-04  3.5648e-08  5.5173e-08  0:00:59 1519
   482  1.5880e-04  3.5542e-08  5.5006e-08  0:05:51 1518
   483  1.5839e-04  3.5437e-08  5.4841e-08  0:04:40 1517
   484  1.5799e-04  3.5333e-08  5.4677e-08  0:03:44 1516

  iter  continuity  x-velocity  y-velocity     time/iter
   485  1.5758e-04  3.5230e-08  5.4515e-08  0:02:59 1515
   486  1.5718e-04  3.5129e-08  5.4356e-08  0:02:23 1514
   487  1.5678e-04  3.5029e-08  5.4200e-08  0:01:55 1513
   488  1.5638e-04  3.4932e-08  5.4044e-08  0:01:32 1512
   489  1.5599e-04  3.4835e-08  5.3890e-08  0:01:13 1511
   490  1.5559e-04  3.4740e-08  5.3737e-08  0:00:59 1510
   491  1.5520e-04  3.4645e-08  5.3586e-08  0:00:47 1509
   492  1.5481e-04  3.4551e-08  5.3435e-08  0:05:39 1508
   493  1.5442e-04  3.4458e-08  5.3285e-08  0:04:31 1507
   494  1.5403e-04  3.4365e-08  5.3134e-08  0:03:37 1506
   495  1.5364e-04  3.4272e-08  5.2985e-08  0:02:53 1505

  iter  continuity  x-velocity  y-velocity     time/iter
   496  1.5325e-04  3.4180e-08  5.2836e-08  0:02:18 1504
   497  1.5286e-04  3.4087e-08  5.2687e-08  0:01:51 1503
   498  1.5248e-04  3.3996e-08  5.2539e-08  0:06:29 1502
   499  1.5210e-04  3.3904e-08  5.2391e-08  0:05:11 1501
   500  1.5172e-04  3.3812e-08  5.2245e-08  0:04:09 1500
   501  1.5136e-04  3.3721e-08  5.2100e-08  0:03:19 1499
   502  1.5099e-04  3.3630e-08  5.1956e-08  0:02:39 1498
   503  1.5063e-04  3.3539e-08  5.1813e-08  0:02:07 1497
   504  1.5026e-04  3.3449e-08  5.1670e-08  0:01:42 1496
   505  1.4990e-04  3.3360e-08  5.1528e-08  0:01:21 1495
   506  1.4953e-04  3.3271e-08  5.1388e-08  0:01:05 1494

  iter  continuity  x-velocity  y-velocity     time/iter
   507  1.4917e-04  3.3183e-08  5.1248e-08  0:00:52 1493
   508  1.4880e-04  3.3095e-08  5.1110e-08  0:05:40 1492
   509  1.4844e-04  3.3008e-08  5.0972e-08  0:04:32 1491
   510  1.4808e-04  3.2921e-08  5.0835e-08  0:03:37 1490
   511  1.4771e-04  3.2834e-08  5.0697e-08  0:02:54 1489
   512  1.4735e-04  3.2748e-08  5.0559e-08  0:02:19 1488
   513  1.4699e-04  3.2661e-08  5.0420e-08  0:01:51 1487
   514  1.4663e-04  3.2575e-08  5.0283e-08  0:01:29 1486
   515  1.4627e-04  3.2489e-08  5.0146e-08  0:01:11 1485
   516  1.4591e-04  3.2404e-08  5.0010e-08  0:00:57 1484
   517  1.4555e-04  3.2319e-08  4.9875e-08  0:05:42 1483

  iter  continuity  x-velocity  y-velocity     time/iter
   518  1.4520e-04  3.2235e-08  4.9742e-08  0:04:33 1482
   519  1.4485e-04  3.2152e-08  4.9609e-08  0:03:39 1481
   520  1.4450e-04  3.2070e-08  4.9477e-08  0:02:55 1480
   521  1.4414e-04  3.1987e-08  4.9345e-08  0:02:20 1479
   522  1.4379e-04  3.1906e-08  4.9213e-08  0:01:52 1478
   523  1.4344e-04  3.1825e-08  4.9083e-08  0:01:29 1477
   524  1.4309e-04  3.1744e-08  4.8952e-08  0:01:11 1476
   525  1.4275e-04  3.1664e-08  4.8823e-08  0:00:57 1475
   526  1.4240e-04  3.1584e-08  4.8694e-08  0:00:46 1474
   527  1.4205e-04  3.1504e-08  4.8565e-08  0:05:31 1473
   528  1.4170e-04  3.1425e-08  4.8435e-08  0:04:25 1472

  iter  continuity  x-velocity  y-velocity     time/iter
   529  1.4134e-04  3.1345e-08  4.8304e-08  0:03:32 1471
   530  1.4098e-04  3.1265e-08  4.8174e-08  0:02:49 1470
   531  1.4062e-04  3.1184e-08  4.8044e-08  0:02:15 1469
   532  1.4026e-04  3.1104e-08  4.7915e-08  0:01:48 1468
   533  1.3991e-04  3.1024e-08  4.7786e-08  0:01:26 1467
   534  1.3955e-04  3.0943e-08  4.7657e-08  0:01:09 1466
   535  1.3920e-04  3.0863e-08  4.7529e-08  0:00:55 1465
   536  1.3885e-04  3.0783e-08  4.7403e-08  0:00:44 1464
   537  1.3850e-04  3.0703e-08  4.7276e-08  0:05:28 1463
   538  1.3814e-04  3.0622e-08  4.7149e-08  0:04:22 1462
   539  1.3779e-04  3.0541e-08  4.7022e-08  0:03:30 1461

  iter  continuity  x-velocity  y-velocity     time/iter
   540  1.3744e-04  3.0460e-08  4.6895e-08  0:02:48 1460
   541  1.3708e-04  3.0379e-08  4.6768e-08  0:02:14 1459
   542  1.3673e-04  3.0298e-08  4.6640e-08  0:01:47 1458
   543  1.3638e-04  3.0217e-08  4.6512e-08  0:01:26 1457
   544  1.3603e-04  3.0136e-08  4.6384e-08  0:06:00 1456
   545  1.3567e-04  3.0056e-08  4.6256e-08  0:04:48 1455
   546  1.3532e-04  2.9976e-08  4.6128e-08  0:03:50 1454
   547  1.3498e-04  2.9897e-08  4.5999e-08  0:03:04 1453
   548  1.3465e-04  2.9818e-08  4.5871e-08  0:02:27 1452
   549  1.3432e-04  2.9740e-08  4.5744e-08  0:01:57 1451
   550  1.3400e-04  2.9662e-08  4.5618e-08  0:01:34 1450

  iter  continuity  x-velocity  y-velocity     time/iter
   551  1.3369e-04  2.9585e-08  4.5492e-08  0:01:15 1449
   552  1.3337e-04  2.9509e-08  4.5372e-08  0:01:00 1448
   553  1.3306e-04  2.9434e-08  4.5252e-08  0:05:37 1447
   554  1.3276e-04  2.9360e-08  4.5133e-08  0:04:30 1446
   555  1.3247e-04  2.9286e-08  4.5019e-08  0:03:36 1445
   556  1.3217e-04  2.9214e-08  4.4905e-08  0:02:52 1444
   557  1.3188e-04  2.9145e-08  4.4792e-08  0:02:18 1443
   558  1.3158e-04  2.9076e-08  4.4680e-08  0:01:50 1442
   559  1.3129e-04  2.9007e-08  4.4571e-08  0:01:28 1441
   560  1.3100e-04  2.8939e-08  4.4463e-08  0:01:10 1440
   561  1.3071e-04  2.8871e-08  4.4355e-08  0:00:56 1439

  iter  continuity  x-velocity  y-velocity     time/iter
   562  1.3042e-04  2.8803e-08  4.4248e-08  0:05:33 1438
   563  1.3013e-04  2.8737e-08  4.4143e-08  0:04:26 1437
   564  1.2984e-04  2.8670e-08  4.4038e-08  0:03:33 1436
   565  1.2956e-04  2.8603e-08  4.3934e-08  0:02:50 1435
   566  1.2927e-04  2.8536e-08  4.3829e-08  0:02:16 1434
   567  1.2898e-04  2.8470e-08  4.3726e-08  0:01:49 1433
   568  1.2868e-04  2.8403e-08  4.3620e-08  0:01:27 1432
   569  1.2837e-04  2.8335e-08  4.3512e-08  0:01:09 1431
   570  1.2806e-04  2.8266e-08  4.3402e-08  0:00:55 1430
   571  1.2775e-04  2.8195e-08  4.3290e-08  0:05:30 1429
   572  1.2744e-04  2.8124e-08  4.3175e-08  0:04:24 1428

  iter  continuity  x-velocity  y-velocity     time/iter
   573  1.2712e-04  2.8052e-08  4.3060e-08  0:03:31 1427
   574  1.2681e-04  2.7979e-08  4.2944e-08  0:02:49 1426
   575  1.2649e-04  2.7904e-08  4.2828e-08  0:02:15 1425
   576  1.2617e-04  2.7828e-08  4.2710e-08  0:01:48 1424
   577  1.2585e-04  2.7752e-08  4.2591e-08  0:01:26 1423
   578  1.2553e-04  2.7675e-08  4.2471e-08  0:01:09 1422
   579  1.2521e-04  2.7598e-08  4.2351e-08  0:00:55 1421
   580  1.2489e-04  2.7523e-08  4.2232e-08  0:00:44 1420
   581  1.2458e-04  2.7448e-08  4.2117e-08  0:05:19 1419
   582  1.2427e-04  2.7375e-08  4.2010e-08  0:04:15 1418
   583  1.2396e-04  2.7303e-08  4.1901e-08  0:03:24 1417

  iter  continuity  x-velocity  y-velocity     time/iter
   584  1.2365e-04  2.7232e-08  4.1791e-08  0:02:43 1416
   585  1.2334e-04  2.7161e-08  4.1681e-08  0:02:10 1415
   586  1.2304e-04  2.7091e-08  4.1572e-08  0:01:44 1414
   587  1.2275e-04  2.7022e-08  4.1469e-08  0:01:23 1413
   588  1.2247e-04  2.6958e-08  4.1376e-08  0:01:07 1412
   589  1.2222e-04  2.6897e-08  4.1283e-08  0:00:53 1411
   590  1.2196e-04  2.6837e-08  4.1191e-08  0:05:25 1410
   591  1.2170e-04  2.6781e-08  4.1099e-08  0:04:19 1409
   592  1.2144e-04  2.6724e-08  4.1007e-08  0:03:27 1408
   593  1.2117e-04  2.6667e-08  4.0915e-08  0:02:46 1407
   594  1.2089e-04  2.6609e-08  4.0821e-08  0:02:13 1406

  iter  continuity  x-velocity  y-velocity     time/iter
   595  1.2060e-04  2.6550e-08  4.0726e-08  0:01:46 1405
   596  1.2032e-04  2.6490e-08  4.0629e-08  0:01:25 1404
   597  1.2004e-04  2.6429e-08  4.0531e-08  0:05:48 1403
   598  1.1976e-04  2.6366e-08  4.0432e-08  0:04:38 1402
   599  1.1947e-04  2.6303e-08  4.0333e-08  0:03:43 1401
   600  1.1919e-04  2.6239e-08  4.0233e-08  0:02:58 1400
   601  1.1890e-04  2.6174e-08  4.0131e-08  0:02:22 1399
   602  1.1862e-04  2.6108e-08  4.0029e-08  0:01:54 1398
   603  1.1834e-04  2.6041e-08  3.9928e-08  0:01:31 1397
   604  1.1805e-04  2.5976e-08  3.9826e-08  0:01:13 1396
   605  1.1777e-04  2.5910e-08  3.9723e-08  0:00:58 1395

  iter  continuity  x-velocity  y-velocity     time/iter
   606  1.1749e-04  2.5845e-08  3.9621e-08  0:00:46 1394
   607  1.1721e-04  2.5781e-08  3.9517e-08  0:05:16 1393
   608  1.1692e-04  2.5717e-08  3.9414e-08  0:04:12 1392
   609  1.1664e-04  2.5653e-08  3.9311e-08  0:03:22 1391
   610  1.1635e-04  2.5589e-08  3.9207e-08  0:02:41 1390
   611  1.1608e-04  2.5526e-08  3.9103e-08  0:02:09 1389
   612  1.1580e-04  2.5464e-08  3.9001e-08  0:01:43 1388
   613  1.1552e-04  2.5403e-08  3.8903e-08  0:01:22 1387
   614  1.1526e-04  2.5343e-08  3.8806e-08  0:01:06 1386
   615  1.1501e-04  2.5285e-08  3.8710e-08  0:00:53 1385
   616  1.1475e-04  2.5228e-08  3.8616e-08  0:05:19 1384

  iter  continuity  x-velocity  y-velocity     time/iter
   617  1.1450e-04  2.5171e-08  3.8523e-08  0:04:15 1383
   618  1.1425e-04  2.5114e-08  3.8430e-08  0:03:24 1382
   619  1.1399e-04  2.5057e-08  3.8336e-08  0:02:43 1381
   620  1.1373e-04  2.5001e-08  3.8243e-08  0:02:10 1380
   621  1.1348e-04  2.4944e-08  3.8152e-08  0:01:44 1379
   622  1.1321e-04  2.4888e-08  3.8060e-08  0:01:23 1378
   623  1.1295e-04  2.4831e-08  3.7969e-08  0:01:07 1377
   624  1.1269e-04  2.4775e-08  3.7878e-08  0:00:53 1376
   625  1.1243e-04  2.4718e-08  3.7788e-08  0:05:18 1375
   626  1.1217e-04  2.4662e-08  3.7697e-08  0:04:14 1374
   627  1.1191e-04  2.4605e-08  3.7608e-08  0:03:23 1373

  iter  continuity  x-velocity  y-velocity     time/iter
   628  1.1165e-04  2.4548e-08  3.7518e-08  0:02:42 1372
   629  1.1139e-04  2.4492e-08  3.7429e-08  0:02:10 1371
   630  1.1113e-04  2.4436e-08  3.7340e-08  0:01:44 1370
   631  1.1088e-04  2.4380e-08  3.7252e-08  0:01:23 1369
   632  1.1063e-04  2.4325e-08  3.7164e-08  0:01:06 1368
   633  1.1037e-04  2.4270e-08  3.7075e-08  0:00:53 1367
   634  1.1012e-04  2.4215e-08  3.6986e-08  0:05:16 1366
   635  1.0987e-04  2.4160e-08  3.6897e-08  0:04:12 1365
   636  1.0962e-04  2.4105e-08  3.6809e-08  0:03:22 1364
   637  1.0937e-04  2.4050e-08  3.6721e-08  0:02:41 1363
   638  1.0912e-04  2.3995e-08  3.6634e-08  0:02:09 1362

  iter  continuity  x-velocity  y-velocity     time/iter
   639  1.0887e-04  2.3941e-08  3.6547e-08  0:01:43 1361
   640  1.0862e-04  2.3886e-08  3.6462e-08  0:01:22 1360
   641  1.0838e-04  2.3832e-08  3.6377e-08  0:05:38 1359
   642  1.0814e-04  2.3778e-08  3.6292e-08  0:04:30 1358
   643  1.0790e-04  2.3725e-08  3.6208e-08  0:03:36 1357
   644  1.0766e-04  2.3671e-08  3.6125e-08  0:02:52 1356
   645  1.0742e-04  2.3618e-08  3.6042e-08  0:02:18 1355
   646  1.0718e-04  2.3565e-08  3.5960e-08  0:01:50 1354
   647  1.0695e-04  2.3513e-08  3.5878e-08  0:01:28 1353
   648  1.0672e-04  2.3461e-08  3.5797e-08  0:01:10 1352
   649  1.0648e-04  2.3409e-08  3.5716e-08  0:05:27 1351

  iter  continuity  x-velocity  y-velocity     time/iter
   650  1.0625e-04  2.3358e-08  3.5635e-08  0:04:21 1350
   651  1.0603e-04  2.3307e-08  3.5555e-08  0:03:29 1349
   652  1.0580e-04  2.3256e-08  3.5475e-08  0:02:47 1348
   653  1.0557e-04  2.3206e-08  3.5395e-08  0:02:13 1347
   654  1.0535e-04  2.3156e-08  3.5316e-08  0:01:47 1346
   655  1.0512e-04  2.3107e-08  3.5237e-08  0:01:25 1345
   656  1.0490e-04  2.3058e-08  3.5159e-08  0:01:08 1344
   657  1.0468e-04  2.3009e-08  3.5081e-08  0:00:54 1343
   658  1.0446e-04  2.2960e-08  3.5003e-08  0:05:12 1342
   659  1.0424e-04  2.2912e-08  3.4926e-08  0:04:09 1341
   660  1.0402e-04  2.2863e-08  3.4849e-08  0:03:19 1340

  iter  continuity  x-velocity  y-velocity     time/iter
   661  1.0380e-04  2.2815e-08  3.4771e-08  0:02:39 1339
   662  1.0358e-04  2.2767e-08  3.4694e-08  0:02:07 1338
   663  1.0336e-04  2.2719e-08  3.4617e-08  0:01:42 1337
   664  1.0315e-04  2.2671e-08  3.4541e-08  0:01:21 1336
   665  1.0293e-04  2.2623e-08  3.4464e-08  0:01:05 1335
   666  1.0271e-04  2.2575e-08  3.4387e-08  0:00:52 1334
   667  1.0250e-04  2.2527e-08  3.4311e-08  0:00:42 1333
   668  1.0228e-04  2.2479e-08  3.4234e-08  0:05:00 1332
   669  1.0206e-04  2.2431e-08  3.4158e-08  0:04:00 1331
   670  1.0184e-04  2.2383e-08  3.4082e-08  0:03:11 1330
   671  1.0163e-04  2.2335e-08  3.4006e-08  0:02:33 1329

  iter  continuity  x-velocity  y-velocity     time/iter
   672  1.0141e-04  2.2287e-08  3.3931e-08  0:02:02 1328
   673  1.0119e-04  2.2239e-08  3.3855e-08  0:01:38 1327
   674  1.0098e-04  2.2191e-08  3.3779e-08  0:01:18 1326
   675  1.0076e-04  2.2143e-08  3.3703e-08  0:01:03 1325
   676  1.0054e-04  2.2094e-08  3.3627e-08  0:00:50 1324
   677  1.0032e-04  2.2046e-08  3.3551e-08  0:00:40 1323
   678  1.0011e-04  2.1997e-08  3.3475e-08  0:04:56 1322
   679  9.9890e-05  2.1948e-08  3.3399e-08  0:03:57 1321
   680  9.9672e-05  2.1899e-08  3.3322e-08  0:03:09 1320
   681  9.9454e-05  2.1850e-08  3.3246e-08  0:02:31 1319
   682  9.9236e-05  2.1802e-08  3.3171e-08  0:02:01 1318

  iter  continuity  x-velocity  y-velocity     time/iter
   683  9.9018e-05  2.1753e-08  3.3095e-08  0:01:37 1317
   684  9.8799e-05  2.1704e-08  3.3019e-08  0:01:17 1316
   685  9.8580e-05  2.1655e-08  3.2944e-08  0:01:02 1315
   686  9.8361e-05  2.1606e-08  3.2868e-08  0:00:49 1314
   687  9.8143e-05  2.1556e-08  3.2793e-08  0:05:02 1313
   688  9.7924e-05  2.1507e-08  3.2717e-08  0:04:01 1312
   689  9.7704e-05  2.1457e-08  3.2641e-08  0:03:13 1311
   690  9.7484e-05  2.1408e-08  3.2566e-08  0:02:34 1310
   691  9.7264e-05  2.1358e-08  3.2490e-08  0:02:03 1309
   692  9.7044e-05  2.1308e-08  3.2414e-08  0:01:39 1308
   693  9.6823e-05  2.1258e-08  3.2338e-08  0:01:19 1307

  iter  continuity  x-velocity  y-velocity     time/iter
   694  9.6603e-05  2.1209e-08  3.2262e-08  0:05:24 1306
   695  9.6382e-05  2.1159e-08  3.2187e-08  0:04:19 1305
   696  9.6162e-05  2.1110e-08  3.2111e-08  0:03:27 1304
   697  9.5943e-05  2.1060e-08  3.2036e-08  0:02:46 1303
   698  9.5724e-05  2.1011e-08  3.1962e-08  0:02:12 1302
   699  9.5505e-05  2.0961e-08  3.1887e-08  0:01:46 1301
   700  9.5286e-05  2.0912e-08  3.1813e-08  0:01:25 1300
   701  9.5069e-05  2.0863e-08  3.1739e-08  0:01:08 1299
   702  9.4854e-05  2.0815e-08  3.1664e-08  0:00:54 1298
   703  9.4640e-05  2.0766e-08  3.1587e-08  0:00:43 1297
   704  9.4427e-05  2.0717e-08  3.1509e-08  0:04:54 1296

  iter  continuity  x-velocity  y-velocity     time/iter
   705  9.4214e-05  2.0667e-08  3.1430e-08  0:03:55 1295
   706  9.4002e-05  2.0618e-08  3.1352e-08  0:03:08 1294
   707  9.3790e-05  2.0568e-08  3.1274e-08  0:02:30 1293
   708  9.3579e-05  2.0518e-08  3.1197e-08  0:02:00 1292
   709  9.3367e-05  2.0468e-08  3.1119e-08  0:01:36 1291
   710  9.3155e-05  2.0419e-08  3.1042e-08  0:01:17 1290
   711  9.2944e-05  2.0369e-08  3.0965e-08  0:01:01 1289
   712  9.2734e-05  2.0319e-08  3.0888e-08  0:00:49 1288
   713  9.2525e-05  2.0270e-08  3.0812e-08  0:04:57 1287
   714  9.2318e-05  2.0220e-08  3.0736e-08  0:03:57 1286
   715  9.2112e-05  2.0171e-08  3.0660e-08  0:03:09 1285

  iter  continuity  x-velocity  y-velocity     time/iter
   716  9.1905e-05  2.0122e-08  3.0585e-08  0:02:31 1284
   717  9.1699e-05  2.0073e-08  3.0510e-08  0:02:01 1283
   718  9.1493e-05  2.0025e-08  3.0435e-08  0:01:37 1282
   719  9.1287e-05  1.9976e-08  3.0360e-08  0:01:17 1281
   720  9.1083e-05  1.9928e-08  3.0285e-08  0:01:02 1280
   721  9.0879e-05  1.9879e-08  3.0211e-08  0:00:49 1279
   722  9.0675e-05  1.9831e-08  3.0137e-08  0:00:40 1278
   723  9.0473e-05  1.9784e-08  3.0063e-08  0:04:47 1277
   724  9.0271e-05  1.9736e-08  2.9989e-08  0:03:49 1276
   725  9.0069e-05  1.9688e-08  2.9916e-08  0:03:03 1275
   726  8.9870e-05  1.9641e-08  2.9842e-08  0:02:27 1274

  iter  continuity  x-velocity  y-velocity     time/iter
   727  8.9671e-05  1.9594e-08  2.9769e-08  0:01:57 1273
   728  8.9472e-05  1.9547e-08  2.9697e-08  0:01:34 1272
   729  8.9275e-05  1.9501e-08  2.9624e-08  0:01:15 1271
   730  8.9078e-05  1.9454e-08  2.9551e-08  0:01:00 1270
   731  8.8881e-05  1.9408e-08  2.9479e-08  0:00:48 1269
   732  8.8686e-05  1.9362e-08  2.9408e-08  0:04:52 1268
   733  8.8491e-05  1.9316e-08  2.9336e-08  0:03:53 1267
   734  8.8298e-05  1.9271e-08  2.9265e-08  0:03:06 1266
   735  8.8105e-05  1.9225e-08  2.9194e-08  0:02:29 1265
   736  8.7913e-05  1.9180e-08  2.9124e-08  0:01:59 1264
   737  8.7722e-05  1.9135e-08  2.9054e-08  0:01:35 1263

  iter  continuity  x-velocity  y-velocity     time/iter
   738  8.7532e-05  1.9090e-08  2.8984e-08  0:01:16 1262
   739  8.7343e-05  1.9046e-08  2.8914e-08  0:05:13 1261
   740  8.7155e-05  1.9002e-08  2.8845e-08  0:04:10 1260
   741  8.6967e-05  1.8958e-08  2.8776e-08  0:03:20 1259
   742  8.6780e-05  1.8914e-08  2.8707e-08  0:02:40 1258
   743  8.6594e-05  1.8870e-08  2.8639e-08  0:02:08 1257
   744  8.6409e-05  1.8827e-08  2.8571e-08  0:01:42 1256
   745  8.6226e-05  1.8783e-08  2.8503e-08  0:01:22 1255
   746  8.6044e-05  1.8740e-08  2.8436e-08  0:01:05 1254
   747  8.5863e-05  1.8698e-08  2.8370e-08  0:00:52 1253
   748  8.5683e-05  1.8655e-08  2.8305e-08  0:00:42 1252

  iter  continuity  x-velocity  y-velocity     time/iter
   749  8.5505e-05  1.8613e-08  2.8241e-08  0:04:44 1251
   750  8.5328e-05  1.8572e-08  2.8177e-08  0:03:47 1250
   751  8.5152e-05  1.8531e-08  2.8114e-08  0:03:01 1249
   752  8.4978e-05  1.8490e-08  2.8051e-08  0:02:25 1248
   753  8.4804e-05  1.8450e-08  2.7989e-08  0:01:56 1247
   754  8.4632e-05  1.8410e-08  2.7927e-08  0:01:33 1246
   755  8.4462e-05  1.8370e-08  2.7865e-08  0:01:14 1245
   756  8.4293e-05  1.8331e-08  2.7803e-08  0:00:59 1244
   757  8.4125e-05  1.8292e-08  2.7742e-08  0:00:47 1243
   758  8.3960e-05  1.8254e-08  2.7682e-08  0:04:46 1242
   759  8.3796e-05  1.8215e-08  2.7621e-08  0:03:49 1241

  iter  continuity  x-velocity  y-velocity     time/iter
   760  8.3634e-05  1.8178e-08  2.7561e-08  0:03:03 1240
   761  8.3472e-05  1.8140e-08  2.7502e-08  0:02:26 1239
   762  8.3312e-05  1.8103e-08  2.7444e-08  0:01:57 1238
   763  8.3152e-05  1.8067e-08  2.7385e-08  0:01:33 1237
   764  8.2994e-05  1.8030e-08  2.7328e-08  0:01:15 1236
   765  8.2836e-05  1.7994e-08  2.7270e-08  0:01:00 1235
   766  8.2683e-05  1.7959e-08  2.7214e-08  0:00:48 1234
   767  8.2532e-05  1.7923e-08  2.7158e-08  0:04:45 1233
   768  8.2381e-05  1.7888e-08  2.7103e-08  0:03:48 1232
   769  8.2231e-05  1.7853e-08  2.7048e-08  0:03:02 1231
   770  8.2081e-05  1.7818e-08  2.6993e-08  0:02:25 1230

  iter  continuity  x-velocity  y-velocity     time/iter
   771  8.1932e-05  1.7784e-08  2.6939e-08  0:01:56 1229
   772  8.1783e-05  1.7750e-08  2.6884e-08  0:01:33 1228
   773  8.1634e-05  1.7716e-08  2.6830e-08  0:01:14 1227
   774  8.1484e-05  1.7681e-08  2.6776e-08  0:00:59 1226
   775  8.1332e-05  1.7647e-08  2.6722e-08  0:00:47 1225
   776  8.1179e-05  1.7613e-08  2.6667e-08  0:00:38 1224
   777  8.1025e-05  1.7579e-08  2.6612e-08  0:04:35 1223
   778  8.0870e-05  1.7545e-08  2.6558e-08  0:03:40 1222
   779  8.0715e-05  1.7510e-08  2.6503e-08  0:02:56 1221
   780  8.0559e-05  1.7476e-08  2.6448e-08  0:02:20 1220
   781  8.0401e-05  1.7441e-08  2.6393e-08  0:01:52 1219

  iter  continuity  x-velocity  y-velocity     time/iter
   782  8.0243e-05  1.7407e-08  2.6337e-08  0:01:30 1218
   783  8.0084e-05  1.7372e-08  2.6282e-08  0:01:12 1217
   784  7.9925e-05  1.7337e-08  2.6227e-08  0:05:01 1216
   785  7.9764e-05  1.7302e-08  2.6171e-08  0:04:00 1215
   786  7.9603e-05  1.7267e-08  2.6115e-08  0:03:12 1214
   787  7.9441e-05  1.7232e-08  2.6060e-08  0:02:33 1213
   788  7.9279e-05  1.7198e-08  2.6005e-08  0:02:03 1212
   789  7.9118e-05  1.7163e-08  2.5950e-08  0:01:38 1211
   790  7.8957e-05  1.7129e-08  2.5895e-08  0:01:18 1210
   791  7.8795e-05  1.7094e-08  2.5841e-08  0:01:03 1209
   792  7.8635e-05  1.7060e-08  2.5787e-08  0:00:50 1208

  iter  continuity  x-velocity  y-velocity     time/iter
   793  7.8477e-05  1.7026e-08  2.5734e-08  0:04:41 1207
   794  7.8319e-05  1.6992e-08  2.5681e-08  0:03:45 1206
   795  7.8163e-05  1.6958e-08  2.5629e-08  0:03:00 1205
   796  7.8007e-05  1.6925e-08  2.5578e-08  0:02:24 1204
   797  7.7851e-05  1.6892e-08  2.5526e-08  0:01:55 1203
   798  7.7696e-05  1.6858e-08  2.5474e-08  0:01:32 1202
   799  7.7542e-05  1.6824e-08  2.5422e-08  0:01:13 1201
   800  7.7389e-05  1.6790e-08  2.5370e-08  0:00:59 1200
   801  7.7234e-05  1.6756e-08  2.5319e-08  0:00:47 1199
   802  7.7078e-05  1.6722e-08  2.5268e-08  0:04:37 1198
   803  7.6923e-05  1.6687e-08  2.5218e-08  0:03:41 1197

  iter  continuity  x-velocity  y-velocity     time/iter
   804  7.6770e-05  1.6652e-08  2.5168e-08  0:02:57 1196
   805  7.6617e-05  1.6618e-08  2.5118e-08  0:02:22 1195
   806  7.6464e-05  1.6583e-08  2.5068e-08  0:01:53 1194
   807  7.6312e-05  1.6548e-08  2.5019e-08  0:01:30 1193
   808  7.6162e-05  1.6514e-08  2.4970e-08  0:01:12 1192
   809  7.6014e-05  1.6479e-08  2.4922e-08  0:00:58 1191
   810  7.5862e-05  1.6445e-08  2.4873e-08  0:00:46 1190
   811  7.5702e-05  1.6410e-08  2.4823e-08  0:00:37 1189
   812  7.5540e-05  1.6376e-08  2.4773e-08  0:04:27 1188
   813  7.5379e-05  1.6340e-08  2.4723e-08  0:03:34 1187
   814  7.5220e-05  1.6305e-08  2.4673e-08  0:02:51 1186

  iter  continuity  x-velocity  y-velocity     time/iter
   815  7.5064e-05  1.6270e-08  2.4624e-08  0:02:16 1185
   816  7.4910e-05  1.6235e-08  2.4575e-08  0:01:49 1184
   817  7.4758e-05  1.6200e-08  2.4527e-08  0:01:27 1183
   818  7.4612e-05  1.6167e-08  2.4481e-08  0:01:10 1182
   819  7.4473e-05  1.6133e-08  2.4437e-08  0:00:56 1181
   820  7.4337e-05  1.6101e-08  2.4395e-08  0:00:45 1180
   821  7.4202e-05  1.6069e-08  2.4355e-08  0:04:31 1179
   822  7.4071e-05  1.6038e-08  2.4315e-08  0:03:37 1178
   823  7.3942e-05  1.6008e-08  2.4277e-08  0:02:53 1177
   824  7.3815e-05  1.5978e-08  2.4239e-08  0:02:19 1176
   825  7.3690e-05  1.5949e-08  2.4202e-08  0:01:51 1175

  iter  continuity  x-velocity  y-velocity     time/iter
   826  7.3566e-05  1.5921e-08  2.4165e-08  0:01:29 1174
   827  7.3445e-05  1.5893e-08  2.4130e-08  0:01:11 1173
   828  7.3325e-05  1.5866e-08  2.4094e-08  0:00:57 1172
   829  7.3205e-05  1.5839e-08  2.4058e-08  0:00:45 1171
   830  7.3087e-05  1.5813e-08  2.4023e-08  0:04:30 1170
   831  7.2969e-05  1.5786e-08  2.3988e-08  0:03:36 1169
   832  7.2853e-05  1.5759e-08  2.3952e-08  0:02:53 1168
   833  7.2736e-05  1.5732e-08  2.3916e-08  0:02:18 1167
   834  7.2621e-05  1.5704e-08  2.3879e-08  0:01:50 1166
   835  7.2505e-05  1.5677e-08  2.3842e-08  0:01:28 1165
   836  7.2391e-05  1.5650e-08  2.3804e-08  0:01:10 1164

  iter  continuity  x-velocity  y-velocity     time/iter
   837  7.2276e-05  1.5623e-08  2.3765e-08  0:04:49 1163
   838  7.2160e-05  1.5597e-08  2.3725e-08  0:03:51 1162
   839  7.2043e-05  1.5570e-08  2.3684e-08  0:03:05 1161
   840  7.1924e-05  1.5544e-08  2.3642e-08  0:02:28 1160
   841  7.1803e-05  1.5517e-08  2.3600e-08  0:01:58 1159
   842  7.1681e-05  1.5489e-08  2.3556e-08  0:01:34 1158
   843  7.1558e-05  1.5462e-08  2.3512e-08  0:01:15 1157
   844  7.1436e-05  1.5434e-08  2.3467e-08  0:01:00 1156
   845  7.1298e-05  1.5405e-08  2.3420e-08  0:00:48 1155
   846  7.1148e-05  1.5375e-08  2.3370e-08  0:00:38 1154
   847  7.0990e-05  1.5345e-08  2.3317e-08  0:04:21 1153

  iter  continuity  x-velocity  y-velocity     time/iter
   848  7.0832e-05  1.5313e-08  2.3264e-08  0:03:29 1152
   849  7.0672e-05  1.5279e-08  2.3209e-08  0:02:47 1151
   850  7.0509e-05  1.5245e-08  2.3153e-08  0:02:13 1150
   851  7.0342e-05  1.5209e-08  2.3095e-08  0:01:47 1149
   852  7.0171e-05  1.5173e-08  2.3037e-08  0:01:25 1148
   853  6.9999e-05  1.5136e-08  2.2979e-08  0:01:08 1147
   854  6.9826e-05  1.5098e-08  2.2920e-08  0:00:54 1146
   855  6.9652e-05  1.5060e-08  2.2862e-08  0:00:44 1145
   856  6.9477e-05  1.5022e-08  2.2804e-08  0:04:24 1144
   857  6.9303e-05  1.4983e-08  2.2745e-08  0:03:31 1143
   858  6.9129e-05  1.4945e-08  2.2687e-08  0:02:48 1142

  iter  continuity  x-velocity  y-velocity     time/iter
   859  6.8955e-05  1.4906e-08  2.2629e-08  0:02:15 1141
   860  6.8782e-05  1.4868e-08  2.2571e-08  0:01:48 1140
   861  6.8610e-05  1.4830e-08  2.2513e-08  0:01:26 1139
   862  6.8438e-05  1.4792e-08  2.2455e-08  0:01:09 1138
   863  6.8267e-05  1.4754e-08  2.2396e-08  0:00:55 1137
   864  6.8095e-05  1.4716e-08  2.2335e-08  0:00:44 1136
   865  6.7927e-05  1.4678e-08  2.2274e-08  0:00:35 1135
   866  6.7760e-05  1.4640e-08  2.2212e-08  0:04:15 1134
   867  6.7595e-05  1.4602e-08  2.2150e-08  0:03:24 1133
   868  6.7430e-05  1.4564e-08  2.2089e-08  0:02:43 1132
   869  6.7265e-05  1.4526e-08  2.2028e-08  0:02:10 1131

  iter  continuity  x-velocity  y-velocity     time/iter
   870  6.7102e-05  1.4488e-08  2.1967e-08  0:01:44 1130
   871  6.6940e-05  1.4451e-08  2.1907e-08  0:01:23 1129
   872  6.6778e-05  1.4413e-08  2.1847e-08  0:01:06 1128
   873  6.6618e-05  1.4376e-08  2.1788e-08  0:00:53 1127
   874  6.6459e-05  1.4340e-08  2.1729e-08  0:00:42 1126
   875  6.6300e-05  1.4303e-08  2.1672e-08  0:04:19 1125
   876  6.6143e-05  1.4267e-08  2.1614e-08  0:03:27 1124
   877  6.5987e-05  1.4231e-08  2.1558e-08  0:02:45 1123
   878  6.5832e-05  1.4196e-08  2.1501e-08  0:02:12 1122
   879  6.5679e-05  1.4160e-08  2.1445e-08  0:01:46 1121
   880  6.5526e-05  1.4125e-08  2.1390e-08  0:01:24 1120

  iter  continuity  x-velocity  y-velocity     time/iter
   881  6.5375e-05  1.4090e-08  2.1335e-08  0:01:08 1119
   882  6.5226e-05  1.4056e-08  2.1280e-08  0:04:38 1118
   883  6.5078e-05  1.4021e-08  2.1226e-08  0:03:42 1117
   884  6.4930e-05  1.3987e-08  2.1172e-08  0:02:57 1116
   885  6.4783e-05  1.3953e-08  2.1119e-08  0:02:22 1115
   886  6.4636e-05  1.3920e-08  2.1066e-08  0:01:53 1114
   887  6.4491e-05  1.3886e-08  2.1013e-08  0:01:31 1113
   888  6.4346e-05  1.3853e-08  2.0961e-08  0:01:12 1112
   889  6.4202e-05  1.3819e-08  2.0909e-08  0:00:58 1111
   890  6.4059e-05  1.3786e-08  2.0857e-08  0:00:46 1110
   891  6.3917e-05  1.3754e-08  2.0805e-08  0:00:37 1109

  iter  continuity  x-velocity  y-velocity     time/iter
   892  6.3777e-05  1.3721e-08  2.0754e-08  0:04:11 1108
   893  6.3637e-05  1.3689e-08  2.0703e-08  0:03:21 1107
   894  6.3498e-05  1.3656e-08  2.0653e-08  0:02:40 1106
   895  6.3359e-05  1.3624e-08  2.0603e-08  0:02:08 1105
   896  6.3222e-05  1.3593e-08  2.0553e-08  0:01:42 1104
   897  6.3085e-05  1.3561e-08  2.0504e-08  0:01:22 1103
   898  6.2948e-05  1.3530e-08  2.0455e-08  0:01:05 1102
   899  6.2813e-05  1.3499e-08  2.0407e-08  0:00:52 1101
   900  6.2679e-05  1.3468e-08  2.0359e-08  0:00:42 1100
   901  6.2545e-05  1.3437e-08  2.0311e-08  0:04:13 1099
   902  6.2412e-05  1.3407e-08  2.0264e-08  0:03:22 1098

  iter  continuity  x-velocity  y-velocity     time/iter
   903  6.2280e-05  1.3376e-08  2.0217e-08  0:02:42 1097
   904  6.2149e-05  1.3346e-08  2.0170e-08  0:02:09 1096
   905  6.2018e-05  1.3316e-08  2.0123e-08  0:01:43 1095
   906  6.1889e-05  1.3286e-08  2.0077e-08  0:01:23 1094
   907  6.1760e-05  1.3256e-08  2.0031e-08  0:01:06 1093
   908  6.1631e-05  1.3227e-08  1.9985e-08  0:00:53 1092
   909  6.1503e-05  1.3197e-08  1.9939e-08  0:00:42 1091
   910  6.1376e-05  1.3168e-08  1.9894e-08  0:04:12 1090
   911  6.1249e-05  1.3139e-08  1.9848e-08  0:03:21 1089
   912  6.1122e-05  1.3110e-08  1.9803e-08  0:02:41 1088
   913  6.0996e-05  1.3081e-08  1.9758e-08  0:02:09 1087

  iter  continuity  x-velocity  y-velocity     time/iter
   914  6.0871e-05  1.3052e-08  1.9714e-08  0:01:43 1086
   915  6.0746e-05  1.3024e-08  1.9669e-08  0:01:22 1085
   916  6.0622e-05  1.2995e-08  1.9625e-08  0:01:06 1084
   917  6.0498e-05  1.2967e-08  1.9581e-08  0:00:52 1083
   918  6.0375e-05  1.2939e-08  1.9537e-08  0:00:42 1082
   919  6.0253e-05  1.2911e-08  1.9493e-08  0:04:10 1081
   920  6.0130e-05  1.2883e-08  1.9450e-08  0:03:20 1080
   921  6.0009e-05  1.2855e-08  1.9407e-08  0:02:40 1079
   922  5.9888e-05  1.2827e-08  1.9364e-08  0:02:07 1078
   923  5.9767e-05  1.2799e-08  1.9320e-08  0:01:42 1077
   924  5.9647e-05  1.2772e-08  1.9278e-08  0:01:21 1076

  iter  continuity  x-velocity  y-velocity     time/iter
   925  5.9528e-05  1.2744e-08  1.9235e-08  0:04:40 1075
   926  5.9409e-05  1.2716e-08  1.9192e-08  0:03:44 1074
   927  5.9291e-05  1.2689e-08  1.9150e-08  0:02:59 1073
   928  5.9174e-05  1.2662e-08  1.9108e-08  0:02:23 1072
   929  5.9057e-05  1.2635e-08  1.9066e-08  0:01:54 1071
   930  5.8941e-05  1.2608e-08  1.9024e-08  0:01:31 1070
   931  5.8827e-05  1.2582e-08  1.8981e-08  0:01:13 1069
   932  5.8715e-05  1.2556e-08  1.8940e-08  0:00:58 1068
   933  5.8603e-05  1.2530e-08  1.8899e-08  0:00:47 1067
   934  5.8491e-05  1.2505e-08  1.8857e-08  0:00:37 1066
   935  5.8380e-05  1.2479e-08  1.8817e-08  0:04:03 1065

  iter  continuity  x-velocity  y-velocity     time/iter
   936  5.8269e-05  1.2454e-08  1.8777e-08  0:03:14 1064
   937  5.8158e-05  1.2429e-08  1.8737e-08  0:02:35 1063
   938  5.8046e-05  1.2405e-08  1.8698e-08  0:02:04 1062
   939  5.7935e-05  1.2380e-08  1.8658e-08  0:01:39 1061
   940  5.7825e-05  1.2355e-08  1.8619e-08  0:01:19 1060
   941  5.7714e-05  1.2331e-08  1.8580e-08  0:01:03 1059
   942  5.7604e-05  1.2306e-08  1.8541e-08  0:00:51 1058
   943  5.7493e-05  1.2282e-08  1.8502e-08  0:00:40 1057
   944  5.7383e-05  1.2257e-08  1.8464e-08  0:04:04 1056
   945  5.7274e-05  1.2233e-08  1.8425e-08  0:03:15 1055
   946  5.7164e-05  1.2209e-08  1.8387e-08  0:02:36 1054

  iter  continuity  x-velocity  y-velocity     time/iter
   947  5.7055e-05  1.2185e-08  1.8348e-08  0:02:04 1053
   948  5.6946e-05  1.2161e-08  1.8310e-08  0:01:39 1052
   949  5.6838e-05  1.2137e-08  1.8272e-08  0:01:19 1051
   950  5.6730e-05  1.2113e-08  1.8235e-08  0:01:03 1050
   951  5.6622e-05  1.2090e-08  1.8197e-08  0:00:51 1049
   952  5.6513e-05  1.2066e-08  1.8160e-08  0:00:41 1048
   953  5.6404e-05  1.2042e-08  1.8122e-08  0:04:02 1047
   954  5.6295e-05  1.2019e-08  1.8085e-08  0:03:13 1046
   955  5.6188e-05  1.1995e-08  1.8047e-08  0:02:34 1045
   956  5.6078e-05  1.1972e-08  1.8009e-08  0:02:03 1044
   957  5.5969e-05  1.1948e-08  1.7972e-08  0:01:39 1043

  iter  continuity  x-velocity  y-velocity     time/iter
   958  5.5858e-05  1.1925e-08  1.7934e-08  0:01:19 1042
   959  5.5748e-05  1.1902e-08  1.7897e-08  0:01:03 1041
   960  5.5639e-05  1.1878e-08  1.7860e-08  0:00:50 1040
   961  5.5529e-05  1.1855e-08  1.7823e-08  0:00:40 1039
   962  5.5421e-05  1.1832e-08  1.7786e-08  0:04:00 1038
   963  5.5313e-05  1.1809e-08  1.7750e-08  0:03:12 1037
   964  5.5205e-05  1.1786e-08  1.7714e-08  0:02:33 1036
   965  5.5099e-05  1.1763e-08  1.7677e-08  0:02:02 1035
   966  5.4992e-05  1.1741e-08  1.7642e-08  0:01:38 1034
   967  5.4886e-05  1.1718e-08  1.7606e-08  0:01:18 1033
   968  5.4781e-05  1.1696e-08  1.7571e-08  0:01:02 1032

  iter  continuity  x-velocity  y-velocity     time/iter
   969  5.4677e-05  1.1674e-08  1.7535e-08  0:00:50 1031
   970  5.4573e-05  1.1652e-08  1.7501e-08  0:00:40 1030
   971  5.4469e-05  1.1630e-08  1.7466e-08  0:00:32 1029
   972  5.4366e-05  1.1608e-08  1.7431e-08  0:03:51 1028
   973  5.4264e-05  1.1586e-08  1.7397e-08  0:03:05 1027
   974  5.4162e-05  1.1564e-08  1.7363e-08  0:02:28 1026
   975  5.4061e-05  1.1543e-08  1.7329e-08  0:01:58 1025
   976  5.3960e-05  1.1522e-08  1.7296e-08  0:01:34 1024
   977  5.3860e-05  1.1501e-08  1.7262e-08  0:01:15 1023
   978  5.3760e-05  1.1480e-08  1.7229e-08  0:04:25 1022
   979  5.3660e-05  1.1459e-08  1.7196e-08  0:03:31 1021

  iter  continuity  x-velocity  y-velocity     time/iter
   980  5.3561e-05  1.1438e-08  1.7164e-08  0:02:49 1020
   981  5.3463e-05  1.1417e-08  1.7131e-08  0:02:15 1019
   982  5.3365e-05  1.1397e-08  1.7099e-08  0:01:48 1018
   983  5.3268e-05  1.1376e-08  1.7067e-08  0:01:26 1017
   984  5.3171e-05  1.1356e-08  1.7035e-08  0:01:09 1016
   985  5.3075e-05  1.1336e-08  1.7004e-08  0:00:55 1015
   986  5.2979e-05  1.1316e-08  1.6972e-08  0:00:44 1014
   987  5.2883e-05  1.1296e-08  1.6941e-08  0:00:35 1013
   988  5.2788e-05  1.1276e-08  1.6910e-08  0:03:51 1012
   989  5.2693e-05  1.1256e-08  1.6880e-08  0:03:04 1011
   990  5.2599e-05  1.1237e-08  1.6849e-08  0:02:27 1010

  iter  continuity  x-velocity  y-velocity     time/iter
   991  5.2505e-05  1.1218e-08  1.6819e-08  0:01:58 1009
   992  5.2411e-05  1.1198e-08  1.6789e-08  0:01:34 1008
   993  5.2318e-05  1.1179e-08  1.6760e-08  0:01:15 1007
   994  5.2226e-05  1.1160e-08  1.6730e-08  0:01:00 1006
   995  5.2134e-05  1.1141e-08  1.6701e-08  0:00:48 1005
   996  5.2042e-05  1.1123e-08  1.6672e-08  0:00:38 1004
   997  5.1950e-05  1.1104e-08  1.6643e-08  0:03:51 1003
   998  5.1858e-05  1.1086e-08  1.6614e-08  0:03:05 1002
   999  5.1767e-05  1.1067e-08  1.6585e-08  0:02:28 1001
  1000  5.1676e-05  1.1049e-08  1.6557e-08  0:01:58 1000
  1001  5.1586e-05  1.1031e-08  1.6528e-08  0:01:34  999

  iter  continuity  x-velocity  y-velocity     time/iter
  1002  5.1497e-05  1.1013e-08  1.6500e-08  0:01:15  998
  1003  5.1407e-05  1.0996e-08  1.6472e-08  0:01:00  997
  1004  5.1319e-05  1.0978e-08  1.6445e-08  0:00:48  996
  1005  5.1231e-05  1.0961e-08  1.6417e-08  0:00:38  995
  1006  5.1143e-05  1.0943e-08  1.6390e-08  0:03:50  994
  1007  5.1056e-05  1.0926e-08  1.6363e-08  0:03:03  993
  1008  5.0970e-05  1.0909e-08  1.6336e-08  0:02:27  992
  1009  5.0884e-05  1.0892e-08  1.6310e-08  0:01:57  991
  1010  5.0798e-05  1.0876e-08  1.6283e-08  0:01:34  990
  1011  5.0713e-05  1.0859e-08  1.6257e-08  0:01:15  989
  1012  5.0629e-05  1.0843e-08  1.6230e-08  0:01:00  988

  iter  continuity  x-velocity  y-velocity     time/iter
  1013  5.0544e-05  1.0826e-08  1.6204e-08  0:00:48  987
  1014  5.0461e-05  1.0810e-08  1.6178e-08  0:00:38  986
  1015  5.0378e-05  1.0794e-08  1.6152e-08  0:00:31  985
  1016  5.0295e-05  1.0778e-08  1.6127e-08  0:03:41  984
  1017  5.0212e-05  1.0762e-08  1.6101e-08  0:02:57  983
  1018  5.0130e-05  1.0746e-08  1.6076e-08  0:02:21  982
  1019  5.0048e-05  1.0731e-08  1.6051e-08  0:01:53  981
  1020  4.9967e-05  1.0715e-08  1.6026e-08  0:01:30  980
  1021  4.9885e-05  1.0700e-08  1.6001e-08  0:01:12  979
  1022  4.9804e-05  1.0684e-08  1.5977e-08  0:04:13  978
  1023  4.9723e-05  1.0669e-08  1.5952e-08  0:03:22  977

  iter  continuity  x-velocity  y-velocity     time/iter
  1024  4.9642e-05  1.0654e-08  1.5927e-08  0:02:42  976
  1025  4.9562e-05  1.0639e-08  1.5903e-08  0:02:09  975
  1026  4.9482e-05  1.0623e-08  1.5879e-08  0:01:43  974
  1027  4.9402e-05  1.0609e-08  1.5855e-08  0:01:23  973
  1028  4.9322e-05  1.0594e-08  1.5831e-08  0:01:06  972
  1029  4.9243e-05  1.0579e-08  1.5807e-08  0:00:53  971
  1030  4.9163e-05  1.0564e-08  1.5783e-08  0:00:42  970
  1031  4.9085e-05  1.0549e-08  1.5759e-08  0:00:34  969
  1032  4.9006e-05  1.0535e-08  1.5736e-08  0:03:41  968
  1033  4.8927e-05  1.0520e-08  1.5712e-08  0:02:56  967
  1034  4.8849e-05  1.0505e-08  1.5689e-08  0:02:21  966

  iter  continuity  x-velocity  y-velocity     time/iter
  1035  4.8771e-05  1.0491e-08  1.5666e-08  0:01:53  965
  1036  4.8694e-05  1.0476e-08  1.5643e-08  0:01:30  964
  1037  4.8616e-05  1.0462e-08  1.5619e-08  0:01:12  963
  1038  4.8538e-05  1.0447e-08  1.5596e-08  0:00:57  962
  1039  4.8461e-05  1.0432e-08  1.5573e-08  0:00:46  961
  1040  4.8383e-05  1.0418e-08  1.5549e-08  0:00:37  960
  1041  4.8305e-05  1.0403e-08  1.5526e-08  0:03:41  959
  1042  4.8228e-05  1.0388e-08  1.5502e-08  0:02:57  958
  1043  4.8150e-05  1.0373e-08  1.5479e-08  0:02:21  957
  1044  4.8072e-05  1.0359e-08  1.5455e-08  0:01:53  956
  1045  4.7995e-05  1.0344e-08  1.5432e-08  0:01:30  955

  iter  continuity  x-velocity  y-velocity     time/iter
  1046  4.7917e-05  1.0329e-08  1.5408e-08  0:01:12  954
  1047  4.7839e-05  1.0314e-08  1.5385e-08  0:00:58  953
  1048  4.7761e-05  1.0299e-08  1.5361e-08  0:00:46  952
  1049  4.7683e-05  1.0284e-08  1.5337e-08  0:00:37  951
  1050  4.7605e-05  1.0269e-08  1.5314e-08  0:00:29  950
  1051  4.7526e-05  1.0253e-08  1.5290e-08  0:03:33  949
  1052  4.7448e-05  1.0238e-08  1.5266e-08  0:02:50  948
  1053  4.7369e-05  1.0223e-08  1.5241e-08  0:02:16  947
  1054  4.7291e-05  1.0207e-08  1.5217e-08  0:01:49  946
  1055  4.7212e-05  1.0192e-08  1.5193e-08  0:01:27  945
  1056  4.7134e-05  1.0176e-08  1.5169e-08  0:01:10  944

  iter  continuity  x-velocity  y-velocity     time/iter
  1057  4.7055e-05  1.0160e-08  1.5145e-08  0:00:56  943
  1058  4.6976e-05  1.0144e-08  1.5121e-08  0:00:44  942
  1059  4.6897e-05  1.0128e-08  1.5096e-08  0:00:35  941
  1060  4.6818e-05  1.0112e-08  1.5071e-08  0:03:36  940
  1061  4.6739e-05  1.0096e-08  1.5046e-08  0:02:53  939
  1062  4.6656e-05  1.0080e-08  1.5021e-08  0:02:18  938
  1063  4.6571e-05  1.0064e-08  1.4995e-08  0:01:50  937
  1064  4.6486e-05  1.0047e-08  1.4968e-08  0:01:28  936
  1065  4.6400e-05  1.0029e-08  1.4941e-08  0:01:11  935
  1066  4.6315e-05  1.0012e-08  1.4914e-08  0:00:56  934
  1067  4.6229e-05  9.9942e-09  1.4887e-08  0:03:52  933

  iter  continuity  x-velocity  y-velocity     time/iter
  1068  4.6144e-05  9.9762e-09  1.4860e-08  0:03:05  932
  1069  4.6059e-05  9.9582e-09  1.4833e-08  0:02:28  931
  1070  4.5974e-05  9.9400e-09  1.4806e-08  0:01:58  930
  1071  4.5889e-05  9.9219e-09  1.4779e-08  0:01:34  929
  1072  4.5803e-05  9.9036e-09  1.4752e-08  0:01:15  928
  1073  4.5717e-05  9.8853e-09  1.4725e-08  0:01:00  927
  1074  4.5632e-05  9.8670e-09  1.4698e-08  0:00:48  926
  1075  4.5546e-05  9.8487e-09  1.4670e-08  0:00:39  925
  1076  4.5461e-05  9.8305e-09  1.4643e-08  0:03:36  924
  1077  4.5375e-05  9.8122e-09  1.4615e-08  0:02:52  923
  1078  4.5290e-05  9.7938e-09  1.4587e-08  0:02:18  922

  iter  continuity  x-velocity  y-velocity     time/iter
  1079  4.5205e-05  9.7754e-09  1.4560e-08  0:01:50  921
  1080  4.5119e-05  9.7569e-09  1.4532e-08  0:01:28  920
  1081  4.5034e-05  9.7384e-09  1.4504e-08  0:01:10  919
  1082  4.4949e-05  9.7199e-09  1.4476e-08  0:00:56  918
  1083  4.4864e-05  9.7013e-09  1.4448e-08  0:00:45  917
  1084  4.4779e-05  9.6827e-09  1.4419e-08  0:00:36  916
  1085  4.4694e-05  9.6640e-09  1.4391e-08  0:03:32  915
  1086  4.4609e-05  9.6453e-09  1.4362e-08  0:02:49  914
  1087  4.4524e-05  9.6265e-09  1.4334e-08  0:02:15  913
  1088  4.4440e-05  9.6077e-09  1.4305e-08  0:01:48  912
  1089  4.4362e-05  9.5888e-09  1.4274e-08  0:01:26  911

  iter  continuity  x-velocity  y-velocity     time/iter
  1090  4.4285e-05  9.5696e-09  1.4243e-08  0:01:09  910
  1091  4.4207e-05  9.5503e-09  1.4212e-08  0:00:55  909
  1092  4.4128e-05  9.5309e-09  1.4184e-08  0:00:44  908
  1093  4.4047e-05  9.5117e-09  1.4155e-08  0:00:35  907
  1094  4.3964e-05  9.4926e-09  1.4127e-08  0:00:28  906
  1095  4.3880e-05  9.4735e-09  1.4098e-08  0:03:23  905
  1096  4.3796e-05  9.4543e-09  1.4070e-08  0:02:43  904
  1097  4.3711e-05  9.4351e-09  1.4041e-08  0:02:10  903
  1098  4.3627e-05  9.4159e-09  1.4013e-08  0:01:44  902
  1099  4.3541e-05  9.3966e-09  1.3984e-08  0:01:23  901
  1100  4.3455e-05  9.3773e-09  1.3955e-08  0:01:06  900

  iter  continuity  x-velocity  y-velocity     time/iter
  1101  4.3369e-05  9.3578e-09  1.3926e-08  0:00:53  899
  1102  4.3282e-05  9.3382e-09  1.3897e-08  0:00:42  898
  1103  4.3196e-05  9.3184e-09  1.3867e-08  0:00:34  897
  1104  4.3110e-05  9.2986e-09  1.3837e-08  0:03:26  896
  1105  4.3023e-05  9.2787e-09  1.3807e-08  0:02:45  895
  1106  4.2937e-05  9.2587e-09  1.3777e-08  0:02:12  894
  1107  4.2851e-05  9.2387e-09  1.3747e-08  0:01:45  893
  1108  4.2765e-05  9.2185e-09  1.3717e-08  0:01:24  892
  1109  4.2679e-05  9.1983e-09  1.3686e-08  0:01:07  891
  1110  4.2592e-05  9.1779e-09  1.3656e-08  0:00:54  890
  1111  4.2506e-05  9.1575e-09  1.3626e-08  0:00:43  889

  iter  continuity  x-velocity  y-velocity     time/iter
  1112  4.2420e-05  9.1370e-09  1.3595e-08  0:00:34  888
  1113  4.2333e-05  9.1163e-09  1.3564e-08  0:03:25  887
  1114  4.2246e-05  9.0958e-09  1.3533e-08  0:02:44  886
  1115  4.2159e-05  9.0752e-09  1.3503e-08  0:02:11  885
  1116  4.2072e-05  9.0545e-09  1.3472e-08  0:01:45  884
  1117  4.1985e-05  9.0338e-09  1.3441e-08  0:01:24  883
  1118  4.1898e-05  9.0130e-09  1.3410e-08  0:01:07  882
  1119  4.1810e-05  8.9921e-09  1.3379e-08  0:00:53  881
  1120  4.1723e-05  8.9712e-09  1.3348e-08  0:03:39  880
  1121  4.1636e-05  8.9503e-09  1.3317e-08  0:02:55  879
  1122  4.1548e-05  8.9294e-09  1.3286e-08  0:02:20  878

  iter  continuity  x-velocity  y-velocity     time/iter
  1123  4.1461e-05  8.9084e-09  1.3255e-08  0:01:52  877
  1124  4.1373e-05  8.8874e-09  1.3225e-08  0:01:29  876
  1125  4.1286e-05  8.8663e-09  1.3194e-08  0:01:11  875
  1126  4.1199e-05  8.8453e-09  1.3163e-08  0:00:57  874
  1127  4.1111e-05  8.8242e-09  1.3132e-08  0:00:45  873
  1128  4.1024e-05  8.8032e-09  1.3101e-08  0:00:36  872
  1129  4.0931e-05  8.7821e-09  1.3068e-08  0:00:29  871
  1130  4.0836e-05  8.7609e-09  1.3035e-08  0:03:17  870
  1131  4.0742e-05  8.7397e-09  1.3002e-08  0:02:38  869
  1132  4.0648e-05  8.7185e-09  1.2969e-08  0:02:06  868
  1133  4.0556e-05  8.6970e-09  1.2936e-08  0:01:41  867

  iter  continuity  x-velocity  y-velocity     time/iter
  1134  4.0464e-05  8.6755e-09  1.2904e-08  0:01:20  866
  1135  4.0374e-05  8.6540e-09  1.2871e-08  0:01:04  865
  1136  4.0284e-05  8.6324e-09  1.2839e-08  0:00:51  864
  1137  4.0195e-05  8.6109e-09  1.2808e-08  0:00:41  863
  1138  4.0106e-05  8.5895e-09  1.2776e-08  0:00:33  862
  1139  4.0017e-05  8.5682e-09  1.2745e-08  0:03:18  861
  1140  3.9929e-05  8.5470e-09  1.2714e-08  0:02:39  860
  1141  3.9842e-05  8.5260e-09  1.2683e-08  0:02:07  859
  1142  3.9754e-05  8.5051e-09  1.2653e-08  0:01:41  858
  1143  3.9667e-05  8.4843e-09  1.2622e-08  0:01:21  857
  1144  3.9581e-05  8.4638e-09  1.2592e-08  0:01:05  856

  iter  continuity  x-velocity  y-velocity     time/iter
  1145  3.9495e-05  8.4436e-09  1.2562e-08  0:00:52  855
  1146  3.9409e-05  8.4234e-09  1.2532e-08  0:00:41  854
  1147  3.9324e-05  8.4035e-09  1.2503e-08  0:00:33  853
  1148  3.9239e-05  8.3836e-09  1.2473e-08  0:03:17  852
  1149  3.9154e-05  8.3639e-09  1.2444e-08  0:02:37  851
  1150  3.9070e-05  8.3444e-09  1.2415e-08  0:02:06  850
  1151  3.8986e-05  8.3252e-09  1.2386e-08  0:01:40  849
  1152  3.8902e-05  8.3061e-09  1.2358e-08  0:01:20  848
  1153  3.8819e-05  8.2871e-09  1.2329e-08  0:01:04  847
  1154  3.8736e-05  8.2682e-09  1.2301e-08  0:00:51  846
  1155  3.8654e-05  8.2495e-09  1.2273e-08  0:00:41  845

  iter  continuity  x-velocity  y-velocity     time/iter
  1156  3.8572e-05  8.2310e-09  1.2245e-08  0:00:33  844
[...]
  1745  1.3752e-05  2.8801e-09  4.1093e-09  0:00:12  255
  1746  1.3731e-05  2.8757e-09  4.1027e-09  0:00:10  254
  1747  1.3710e-05  2.8713e-09  4.0962e-09  0:00:08  253
  1748  1.3688e-05  2.8669e-09  4.0897e-09  0:00:57  252
  1749  1.3667e-05  2.8626e-09  4.0833e-09  0:00:45  251

  iter  continuity  x-velocity  y-velocity     time/iter
  1750  1.3646e-05  2.8582e-09  4.0769e-09  0:00:36  250
  1751  1.3625e-05  2.8539e-09  4.0705e-09  0:00:29  249
  1752  1.3604e-05  2.8496e-09  4.0641e-09  0:00:23  248
  1753  1.3583e-05  2.8453e-09  4.0578e-09  0:00:18  247
  1754  1.3562e-05  2.8410e-09  4.0515e-09  0:00:15  246
  1755  1.3541e-05  2.8367e-09  4.0452e-09  0:00:12  245
  1756  1.3521e-05  2.8325e-09  4.0390e-09  0:00:09  244
  1757  1.3500e-05  2.8283e-09  4.0328e-09  0:00:56  243
  1758  1.3480e-05  2.8241e-09  4.0267e-09  0:00:45  242
  1759  1.3460e-05  2.8199e-09  4.0206e-09  0:00:36  241
  1760  1.3440e-05  2.8158e-09  4.0146e-09  0:00:28  240

  iter  continuity  x-velocity  y-velocity     time/iter
  1761  1.3420e-05  2.8117e-09  4.0088e-09  0:00:23  239
  1762  1.3400e-05  2.8077e-09  4.0030e-09  0:00:18  238
  1763  1.3381e-05  2.8037e-09  3.9973e-09  0:01:02  237
  1764  1.3361e-05  2.7998e-09  3.9917e-09  0:00:49  236
  1765  1.3342e-05  2.7958e-09  3.9861e-09  0:00:39  235
  1766  1.3323e-05  2.7919e-09  3.9805e-09  0:00:31  234
  1767  1.3304e-05  2.7881e-09  3.9750e-09  0:00:25  233
  1768  1.3285e-05  2.7842e-09  3.9694e-09  0:00:20  232
  1769  1.3266e-05  2.7803e-09  3.9639e-09  0:00:16  231
  1770  1.3246e-05  2.7765e-09  3.9583e-09  0:00:13  230
  1771  1.3227e-05  2.7726e-09  3.9527e-09  0:00:10  229

  iter  continuity  x-velocity  y-velocity     time/iter
  1772  1.3208e-05  2.7687e-09  3.9470e-09  0:00:08  228
  1773  1.3189e-05  2.7649e-09  3.9413e-09  0:00:52  227
  1774  1.3169e-05  2.7610e-09  3.9355e-09  0:00:41  226
  1775  1.3150e-05  2.7571e-09  3.9297e-09  0:00:33  225
  1776  1.3130e-05  2.7532e-09  3.9237e-09  0:00:26  224
  1777  1.3110e-05  2.7492e-09  3.9178e-09  0:00:21  223
  1778  1.3091e-05  2.7452e-09  3.9118e-09  0:00:17  222
  1779  1.3071e-05  2.7412e-09  3.9059e-09  0:00:13  221
  1780  1.3051e-05  2.7372e-09  3.9000e-09  0:00:11  220
  1781  1.3032e-05  2.7332e-09  3.8940e-09  0:00:08  219
  1782  1.3012e-05  2.7292e-09  3.8881e-09  0:00:50  218

  iter  continuity  x-velocity  y-velocity     time/iter
  1783  1.2993e-05  2.7252e-09  3.8822e-09  0:00:40  217
  1784  1.2973e-05  2.7212e-09  3.8763e-09  0:00:32  216
  1785  1.2954e-05  2.7172e-09  3.8704e-09  0:00:25  215
  1786  1.2934e-05  2.7132e-09  3.8646e-09  0:00:20  214
  1787  1.2915e-05  2.7092e-09  3.8587e-09  0:00:16  213
  1788  1.2896e-05  2.7053e-09  3.8529e-09  0:00:13  212
  1789  1.2877e-05  2.7014e-09  3.8470e-09  0:00:10  211
  1790  1.2857e-05  2.6975e-09  3.8412e-09  0:00:08  210
  1791  1.2838e-05  2.6936e-09  3.8354e-09  0:00:48  209
  1792  1.2819e-05  2.6896e-09  3.8296e-09  0:00:38  208
  1793  1.2800e-05  2.6857e-09  3.8238e-09  0:00:31  207

  iter  continuity  x-velocity  y-velocity     time/iter
  1794  1.2781e-05  2.6818e-09  3.8180e-09  0:00:24  206
  1795  1.2762e-05  2.6779e-09  3.8122e-09  0:00:19  205
  1796  1.2742e-05  2.6740e-09  3.8064e-09  0:00:15  204
  1797  1.2723e-05  2.6701e-09  3.8006e-09  0:00:12  203
  1798  1.2704e-05  2.6662e-09  3.7948e-09  0:00:10  202
  1799  1.2685e-05  2.6623e-09  3.7891e-09  0:00:08  201
  1800  1.2666e-05  2.6585e-09  3.7833e-09  0:00:06  200
  1801  1.2647e-05  2.6546e-09  3.7775e-09  0:00:45  199
  1802  1.2628e-05  2.6507e-09  3.7717e-09  0:00:36  198
  1803  1.2609e-05  2.6469e-09  3.7660e-09  0:00:28  197
  1804  1.2590e-05  2.6430e-09  3.7602e-09  0:00:23  196

  iter  continuity  x-velocity  y-velocity     time/iter
  1805  1.2571e-05  2.6392e-09  3.7545e-09  0:00:18  195
  1806  1.2553e-05  2.6354e-09  3.7489e-09  0:00:14  194
  1807  1.2534e-05  2.6316e-09  3.7433e-09  0:00:11  193
  1808  1.2516e-05  2.6279e-09  3.7377e-09  0:00:47  192
  1809  1.2497e-05  2.6241e-09  3.7321e-09  0:00:38  191
  1810  1.2479e-05  2.6204e-09  3.7266e-09  0:00:30  190
  1811  1.2461e-05  2.6167e-09  3.7212e-09  0:00:24  189
  1812  1.2443e-05  2.6130e-09  3.7158e-09  0:00:19  188
  1813  1.2425e-05  2.6094e-09  3.7105e-09  0:00:15  187
  1814  1.2408e-05  2.6058e-09  3.7052e-09  0:00:12  186
  1815  1.2390e-05  2.6022e-09  3.7000e-09  0:00:10  185

  iter  continuity  x-velocity  y-velocity     time/iter
  1816  1.2373e-05  2.5987e-09  3.6949e-09  0:00:08  184
  1817  1.2356e-05  2.5952e-09  3.6898e-09  0:00:43  183
  1818  1.2339e-05  2.5917e-09  3.6848e-09  0:00:34  182
  1819  1.2322e-05  2.5883e-09  3.6799e-09  0:00:27  181
  1820  1.2305e-05  2.5849e-09  3.6750e-09  0:00:21  180
  1821  1.2289e-05  2.5815e-09  3.6702e-09  0:00:17  179
  1822  1.2272e-05  2.5783e-09  3.6655e-09  0:00:14  178
  1823  1.2256e-05  2.5750e-09  3.6608e-09  0:00:11  177
  1824  1.2240e-05  2.5719e-09  3.6563e-09  0:00:09  176
  1825  1.2224e-05  2.5687e-09  3.6517e-09  0:00:07  175
  1826  1.2209e-05  2.5656e-09  3.6473e-09  0:00:40  174

  iter  continuity  x-velocity  y-velocity     time/iter
  1827  1.2193e-05  2.5626e-09  3.6429e-09  0:00:32  173
  1828  1.2178e-05  2.5596e-09  3.6386e-09  0:00:25  172
  1829  1.2163e-05  2.5566e-09  3.6344e-09  0:00:20  171
  1830  1.2148e-05  2.5537e-09  3.6302e-09  0:00:16  170
  1831  1.2134e-05  2.5509e-09  3.6261e-09  0:00:13  169
  1832  1.2119e-05  2.5481e-09  3.6221e-09  0:00:10  168
  1833  1.2105e-05  2.5453e-09  3.6182e-09  0:00:08  167
  1834  1.2091e-05  2.5425e-09  3.6144e-09  0:00:06  166
  1835  1.2077e-05  2.5399e-09  3.6107e-09  0:00:38  165
  1836  1.2064e-05  2.5373e-09  3.6070e-09  0:00:30  164
  1837  1.2051e-05  2.5347e-09  3.6035e-09  0:00:24  163

  iter  continuity  x-velocity  y-velocity     time/iter
  1838  1.2038e-05  2.5322e-09  3.6000e-09  0:00:19  162
  1839  1.2025e-05  2.5298e-09  3.5967e-09  0:00:15  161
  1840  1.2012e-05  2.5274e-09  3.5934e-09  0:00:12  160
  1841  1.2000e-05  2.5250e-09  3.5903e-09  0:00:10  159
  1842  1.1988e-05  2.5228e-09  3.5873e-09  0:00:08  158
  1843  1.1976e-05  2.5206e-09  3.5844e-09  0:00:06  157
  1844  1.1964e-05  2.5185e-09  3.5816e-09  0:00:05  156
  1845  1.1953e-05  2.5164e-09  3.5789e-09  0:00:35  155
  1846  1.1942e-05  2.5145e-09  3.5763e-09  0:00:28  154
  1847  1.1932e-05  2.5126e-09  3.5738e-09  0:00:22  153
  1848  1.1921e-05  2.5108e-09  3.5715e-09  0:00:17  152

  iter  continuity  x-velocity  y-velocity     time/iter
  1849  1.1911e-05  2.5091e-09  3.5693e-09  0:00:14  151
  1850  1.1902e-05  2.5074e-09  3.5672e-09  0:00:11  150
  1851  1.1892e-05  2.5059e-09  3.5653e-09  0:00:09  149
  1852  1.1883e-05  2.5044e-09  3.5634e-09  0:00:07  148
  1853  1.1875e-05  2.5030e-09  3.5618e-09  0:00:06  147
  1854  1.1867e-05  2.5018e-09  3.5603e-09  0:00:34  146
  1855  1.1859e-05  2.5006e-09  3.5589e-09  0:00:27  145
  1856  1.1851e-05  2.4995e-09  3.5578e-09  0:00:21  144
  1857  1.1844e-05  2.4985e-09  3.5567e-09  0:00:17  143
  1858  1.1838e-05  2.4976e-09  3.5559e-09  0:00:13  142
  1859  1.1831e-05  2.4968e-09  3.5552e-09  0:00:11  141

  iter  continuity  x-velocity  y-velocity     time/iter
  1860  1.1826e-05  2.4962e-09  3.5548e-09  0:00:36  140
  1861  1.1820e-05  2.4956e-09  3.5546e-09  0:00:29  139
  1862  1.1815e-05  2.4952e-09  3.5545e-09  0:00:23  138
  1863  1.1811e-05  2.4949e-09  3.5547e-09  0:00:18  137
  1864  1.1807e-05  2.4947e-09  3.5551e-09  0:00:15  136
  1865  1.1804e-05  2.4947e-09  3.5557e-09  0:00:12  135
  1866  1.1801e-05  2.4948e-09  3.5565e-09  0:00:09  134
  1867  1.1799e-05  2.4951e-09  3.5575e-09  0:00:07  133
  1868  1.1797e-05  2.4955e-09  3.5589e-09  0:00:06  132
  1869  1.1796e-05  2.4960e-09  3.5604e-09  0:00:31  131
  1870  1.1795e-05  2.4968e-09  3.5622e-09  0:00:24  130

  iter  continuity  x-velocity  y-velocity     time/iter
  1871  1.1795e-05  2.4976e-09  3.5643e-09  0:00:19  129
  1872  1.1796e-05  2.4987e-09  3.5667e-09  0:00:15  128
  1873  1.1797e-05  2.4999e-09  3.5693e-09  0:00:12  127
  1874  1.1799e-05  2.5014e-09  3.5722e-09  0:00:10  126
  1875  1.1802e-05  2.5030e-09  3.5754e-09  0:00:08  125
  1876  1.1806e-05  2.5048e-09  3.5789e-09  0:00:06  124
  1877  1.1810e-05  2.5067e-09  3.5827e-09  0:00:05  123
  1878  1.1815e-05  2.5089e-09  3.5867e-09  0:00:04  122
  1879  1.1821e-05  2.5113e-09  3.5911e-09  0:00:27  121
  1880  1.1828e-05  2.5139e-09  3.5958e-09  0:00:22  120
  1881  1.1835e-05  2.5166e-09  3.6008e-09  0:00:17  119

  iter  continuity  x-velocity  y-velocity     time/iter
  1882  1.1843e-05  2.5196e-09  3.6061e-09  0:00:14  118
  1883  1.1852e-05  2.5227e-09  3.6117e-09  0:00:11  117
  1884  1.1862e-05  2.5261e-09  3.6176e-09  0:00:09  116
  1885  1.1872e-05  2.5297e-09  3.6238e-09  0:00:07  115
  1886  1.1883e-05  2.5335e-09  3.6303e-09  0:00:05  114
  1887  1.1895e-05  2.5375e-09  3.6371e-09  0:00:04  113
  1888  1.1908e-05  2.5417e-09  3.6442e-09  0:00:26  112
  1889  1.1921e-05  2.5462e-09  3.6516e-09  0:00:20  111
  1890  1.1935e-05  2.5508e-09  3.6593e-09  0:00:16  110
  1891  1.1950e-05  2.5557e-09  3.6672e-09  0:00:13  109
  1892  1.1965e-05  2.5607e-09  3.6754e-09  0:00:10  108

  iter  continuity  x-velocity  y-velocity     time/iter
  1893  1.1981e-05  2.5659e-09  3.6838e-09  0:00:08  107
  1894  1.1998e-05  2.5712e-09  3.6923e-09  0:00:06  106
  1895  1.2015e-05  2.5767e-09  3.7011e-09  0:00:05  105
  1896  1.2032e-05  2.5823e-09  3.7099e-09  0:00:04  104
  1897  1.2050e-05  2.5881e-09  3.7189e-09  0:00:24  103
  1898  1.2068e-05  2.5939e-09  3.7280e-09  0:00:19  102
  1899  1.2086e-05  2.5998e-09  3.7371e-09  0:00:15  101
  1900  1.2104e-05  2.6057e-09  3.7462e-09  0:00:12  100
  1901  1.2122e-05  2.6117e-09  3.7553e-09  0:00:09   99
  1902  1.2139e-05  2.6176e-09  3.7643e-09  0:00:07   98
  1903  1.2157e-05  2.6236e-09  3.7733e-09  0:00:06   97

  iter  continuity  x-velocity  y-velocity     time/iter
  1904  1.2174e-05  2.6294e-09  3.7820e-09  0:00:24   96
  1905  1.2191e-05  2.6351e-09  3.7906e-09  0:00:19   95
  1906  1.2207e-05  2.6407e-09  3.7989e-09  0:00:15   94
  1907  1.2222e-05  2.6462e-09  3.8069e-09  0:00:12   93
  1908  1.2237e-05  2.6514e-09  3.8147e-09  0:00:09   92
  1909  1.2250e-05  2.6565e-09  3.8221e-09  0:00:07   91
  1910  1.2263e-05  2.6614e-09  3.8289e-09  0:00:06   90
  1911  1.2274e-05  2.6659e-09  3.8353e-09  0:00:05   89
  1912  1.2285e-05  2.6701e-09  3.8411e-09  0:00:04   88
  1913  1.2293e-05  2.6740e-09  3.8464e-09  0:00:20   87
  1914  1.2301e-05  2.6775e-09  3.8511e-09  0:00:16   86

  iter  continuity  x-velocity  y-velocity     time/iter
  1915  1.2308e-05  2.6806e-09  3.8551e-09  0:00:13   85
  1916  1.2313e-05  2.6833e-09  3.8584e-09  0:00:10   84
  1917  1.2316e-05  2.6855e-09  3.8611e-09  0:00:08   83
  1918  1.2318e-05  2.6873e-09  3.8631e-09  0:00:06   82
  1919  1.2318e-05  2.6887e-09  3.8645e-09  0:00:05   81
  1920  1.2316e-05  2.6895e-09  3.8652e-09  0:00:04   80
  1921  1.2313e-05  2.6898e-09  3.8653e-09  0:00:03   79
  1922  1.2308e-05  2.6897e-09  3.8645e-09  0:00:18   78
  1923  1.2302e-05  2.6890e-09  3.8630e-09  0:00:14   77
  1924  1.2293e-05  2.6878e-09  3.8608e-09  0:00:11   76
  1925  1.2283e-05  2.6861e-09  3.8578e-09  0:00:09   75

  iter  continuity  x-velocity  y-velocity     time/iter
  1926  1.2271e-05  2.6839e-09  3.8541e-09  0:00:07   74
  1927  1.2257e-05  2.6812e-09  3.8496e-09  0:00:06   73
  1928  1.2242e-05  2.6780e-09  3.8445e-09  0:00:04   72
  1929  1.2225e-05  2.6743e-09  3.8386e-09  0:00:03   71
  1930  1.2206e-05  2.6701e-09  3.8320e-09  0:00:03   70
  1931  1.2186e-05  2.6656e-09  3.8249e-09  0:00:16   69
  1932  1.2164e-05  2.6606e-09  3.8171e-09  0:00:13   68
  1933  1.2141e-05  2.6552e-09  3.8087e-09  0:00:10   67
  1934  1.2116e-05  2.6494e-09  3.7997e-09  0:00:08   66
  1935  1.2090e-05  2.6432e-09  3.7902e-09  0:00:06   65
  1936  1.2063e-05  2.6366e-09  3.7801e-09  0:00:05   64

  iter  continuity  x-velocity  y-velocity     time/iter
  1937  1.2035e-05  2.6298e-09  3.7696e-09  0:00:04   63
  1938  1.2005e-05  2.6226e-09  3.7586e-09  0:00:03   62
  1939  1.1975e-05  2.6152e-09  3.7471e-09  0:00:02   61
  1940  1.1943e-05  2.6075e-09  3.7352e-09  0:00:02   60
  1941  1.1911e-05  2.5995e-09  3.7230e-09  0:00:13   59
  1942  1.1877e-05  2.5913e-09  3.7105e-09  0:00:10   58
  1943  1.1843e-05  2.5829e-09  3.6976e-09  0:00:08   57
  1944  1.1808e-05  2.5743e-09  3.6845e-09  0:00:06   56
  1945  1.1773e-05  2.5655e-09  3.6710e-09  0:00:05   55
  1946  1.1737e-05  2.5566e-09  3.6574e-09  0:00:04   54
  1947  1.1700e-05  2.5475e-09  3.6434e-09  0:00:14   53

  iter  continuity  x-velocity  y-velocity     time/iter
  1948  1.1663e-05  2.5382e-09  3.6293e-09  0:00:11   52
  1949  1.1626e-05  2.5289e-09  3.6151e-09  0:00:08   51
  1950  1.1588e-05  2.5194e-09  3.6006e-09  0:00:07   50
  1951  1.1550e-05  2.5099e-09  3.5861e-09  0:00:05   49
  1952  1.1512e-05  2.5002e-09  3.5715e-09  0:00:04   48
  1953  1.1473e-05  2.4905e-09  3.5568e-09  0:00:03   47
  1954  1.1435e-05  2.4807e-09  3.5420e-09  0:00:02   46
  1955  1.1396e-05  2.4710e-09  3.5271e-09  0:00:02   45
  1956  1.1357e-05  2.4614e-09  3.5122e-09  0:00:10   44
  1957  1.1318e-05  2.4518e-09  3.4973e-09  0:00:08   43
  1958  1.1279e-05  2.4421e-09  3.4824e-09  0:00:06   42

  iter  continuity  x-velocity  y-velocity     time/iter
  1959  1.1240e-05  2.4325e-09  3.4674e-09  0:00:05   41
  1960  1.1201e-05  2.4229e-09  3.4526e-09  0:00:04   40
  1961  1.1163e-05  2.4134e-09  3.4377e-09  0:00:03   39
  1962  1.1124e-05  2.4038e-09  3.4230e-09  0:00:02   38
  1963  1.1086e-05  2.3943e-09  3.4083e-09  0:00:02   37
  1964  1.1047e-05  2.3848e-09  3.3937e-09  0:00:01   36
  1965  1.1009e-05  2.3755e-09  3.3792e-09  0:00:01   35
  1966  1.0972e-05  2.3661e-09  3.3648e-09  0:00:08   34
  1967  1.0933e-05  2.3567e-09  3.3501e-09  0:00:06   33
  1968  1.0894e-05  2.3472e-09  3.3353e-09  0:00:05   32
  1969  1.0855e-05  2.3378e-09  3.3206e-09  0:00:04   31

  iter  continuity  x-velocity  y-velocity     time/iter
  1970  1.0817e-05  2.3284e-09  3.3061e-09  0:00:03   30
  1971  1.0778e-05  2.3192e-09  3.2918e-09  0:00:02   29
  1972  1.0741e-05  2.3101e-09  3.2777e-09  0:00:02   28
  1973  1.0703e-05  2.3011e-09  3.2639e-09  0:00:01   27
  1974  1.0666e-05  2.2922e-09  3.2503e-09  0:00:06   26
  1975  1.0630e-05  2.2835e-09  3.2368e-09  0:00:05   25
  1976  1.0593e-05  2.2749e-09  3.2235e-09  0:00:04   24
  1977  1.0557e-05  2.2664e-09  3.2104e-09  0:00:03   23
  1978  1.0522e-05  2.2580e-09  3.1974e-09  0:00:02   22
  1979  1.0487e-05  2.2497e-09  3.1847e-09  0:00:02   21
  1980  1.0452e-05  2.2415e-09  3.1721e-09  0:00:01   20

  iter  continuity  x-velocity  y-velocity     time/iter
  1981  1.0418e-05  2.2335e-09  3.1597e-09  0:00:01   19
  1982  1.0385e-05  2.2255e-09  3.1474e-09  0:00:01   18
  1983  1.0351e-05  2.2176e-09  3.1354e-09  0:00:04   17
  1984  1.0319e-05  2.2099e-09  3.1234e-09  0:00:03   16
  1985  1.0287e-05  2.2022e-09  3.1116e-09  0:00:02   15
  1986  1.0255e-05  2.1946e-09  3.1001e-09  0:00:02   14
  1987  1.0223e-05  2.1871e-09  3.0887e-09  0:00:01   13
  1988  1.0192e-05  2.1798e-09  3.0775e-09  0:00:01   12
  1989  1.0162e-05  2.1725e-09  3.0664e-09  0:00:01   11
  1990  1.0131e-05  2.1653e-09  3.0556e-09  0:00:00   10
  1991  1.0101e-05  2.1582e-09  3.0449e-09  0:00:02    9

  iter  continuity  x-velocity  y-velocity     time/iter
  1992  1.0072e-05  2.1512e-09  3.0343e-09  0:00:02    8
  1993  1.0042e-05  2.1443e-09  3.0240e-09  0:00:01    7
  1994  1.0014e-05  2.1375e-09  3.0138e-09  0:00:01    6
  1995  9.9856e-06  2.1308e-09  3.0037e-09  0:00:00    5
! 1995 solution is converged

> 
adjoint/                parallel/               server/
define/                 parametric-study/       solve/
display/                plot/                   surface/
exit                    preferences/            views/
file/                   print-license-usage
mesh/                   report/

> ;create rakes
surface/rake-surface cv_inlet -0.005 -0.065 -0.005 0.065 1000

> surface/rake-surface cv_outlet 1.005 -0.065 1.005 0.065 1000

> surface/rake-surface cv_top -0.005 0.065 1.005 0.065 1000

> surface/rake-surface cv_bottom -0.005 -0.065 1.005 -0.065 1000

> surface/point-surface free-stream -15 0

> 
adjoint/                parallel/               server/
define/                 parametric-study/       solve/
display/                plot/                   surface/
exit                    preferences/            views/
file/                   print-license-usage
mesh/                   report/

> ;export data
file/export/ascii NP_CVinlet_data cv_inlet () no pressure x-velocity y-velocity dx-velocity-dx dx-velocity-dy dy-velocity-dx dy-velocity-dy q no 
Writing "NP_CVinlet_data"...

Writing information to ascii file ...
Done.

ok


Overwrite confirmations (/file/set-batch-options ...)
are on -- will therefore ignore the following journal
Error: invalid command: ok


> file/export/ascii NP_CVoutlet_data cv_outlet () no pressure x-velocity y-velocity dx-velocity-dx dx-velocity-dy dy-velocity-dx dy-velocity-dy q no 
Writing "NP_CVoutlet_data"...

Writing information to ascii file ...
Done.

ok


Overwrite confirmations (/file/set-batch-options ...)
are on -- will therefore ignore the following journal
Error: invalid command: ok


> file/export/ascii NP_CVtop_data cv_top () no pressure x-velocity y-velocity dx-velocity-dx dx-velocity-dy dy-velocity-dx dy-velocity-dy q no 
Writing "NP_CVtop_data"...

Writing information to ascii file ...
Done.

ok


Overwrite confirmations (/file/set-batch-options ...)
are on -- will therefore ignore the following journal
Error: invalid command: ok


> file/export/ascii NP_CVbottom_data cv_bottom () no pressure x-velocity y-velocity dx-velocity-dx dx-velocity-dy dy-velocity-dx dy-velocity-dy q no 
Writing "NP_CVbottom_data"...

Writing information to ascii file ...
Done.

ok


Overwrite confirmations (/file/set-batch-options ...)
are on -- will therefore ignore the following journal
Error: invalid command: ok


> file/export/ascii air_properties free-stream () no density viscosity-lam q no 
Writing "air_properties"...

Writing information to ascii file ...
Done.

ok


Overwrite confirmations (/file/set-batch-options ...)
are on -- will therefore ignore the following journal
Error: invalid command: ok


> 
adjoint/                parallel/               server/
define/                 parametric-study/       solve/
display/                plot/                   surface/
exit                    preferences/            views/
file/                   print-license-usage
mesh/                   report/

> ;flag file to know when simulation is over
file/export/ascii flag_file free-stream () no pressure q no 
Writing "flag_file"...

Writing information to ascii file ...
Done.

ok


Overwrite confirmations (/file/set-batch-options ...)
are on -- will therefore ignore the following journal
Error: invalid command: ok


> 
adjoint/                parallel/               server/
define/                 parametric-study/       solve/
display/                plot/                   surface/
exit                    preferences/            views/
file/                   print-license-usage
mesh/                   report/

> /exit y
(cx-gui-do cx-activate-item "Question*OK")

Posting ANSYS Product Improvement Program performance data 
Done.
Auto-Transcript Stop Time:  01:07:07, 14 Aug 2025 GMT Summer Time 
Total Transcript Time: 4 Hour 32 Minute 12 Second.
