Auto-Transcript Start Time:  18:28:01, 20 Jul 2025 GMT Summer Time 
Current Directory: "C:\Users\V.Chepuri\OneDrive - Cranfield University\irp\pablo\re_20000\AOA_0"

              Welcome to ANSYS Fluent 2024 R2

              Copyright 1987-2024 ANSYS, Inc. All Rights Reserved.
              Unauthorized use, distribution or duplication is prohibited.
              This product is subject to U.S. laws governing export and re-export.
              For full Legal Notice, see documentation.

Build Time: May 13 2024 11:28:30 EST  Build Id: 10192  
 
Connected License Server List:	1055@cclic-2.central.cranfield.ac.uk

*********************************************
Info: Your license enables 4-way parallel execution.
For faster simulations, please start the application with the appropriate parallel options.
*********************************************


     --------------------------------------------------------------
     This is an academic version of ANSYS FLUENT. Usage of this product
     license is limited to the terms and conditions specified in your ANSYS
     license form, additional terms section.
     --------------------------------------------------------------
Host spawning Node 0 on machine "37PCL050" (win64).

-------------------------------------------------------------------------------
ID    Hostname  Core  O.S.         PID    Vendor                          
-------------------------------------------------------------------------------
n0    37PCL050  1/28  Windows-x64  21292  Intel(R) Core(TM) i7-14700      
host  37PCL050        Windows-x64  4392   Intel(R) Core(TM) i7-14700      

MPI Option Selected: intel
-------------------------------------------------------------------------------

Cleanup script file is C:\\Users\\V.Chepuri\\OneDrive - Cranfield University\\irp\\pablo\\re_20000\\AOA_0\\cleanup-fluent-37PCL050-4392.bat

Posting ANSYS Product Improvement Program startup data
Done.

> (cx-gui-do cx-activate-item "Key Behavioral Changes*PanelButtons*PushButton1(OK)")
(cx-gui-do cx-activate-item "MenuBar*ReadSubMenu*Case...")
(cx-gui-do cx-set-file-dialog-entries "Select File" '( "template_medium.cas.h5") "CFF Case Files (*.cas.h5 *.msh.h5 *.MSH.h5 )")
Fast-loading "C:\PROGRA~1\ANSYSI~1\v242\fluent\fluent24.2.0\\addons\afd\lib\hdfio.bin"
Done.
Note: Rank = 0: Process affinity not being set (6).

Reading from 37PCL050:"C:/Users/V.Chepuri/OneDrive - Cranfield University/irp/pablo/re_20000/AOA_0/template_medium.cas.h5" in NODE0 mode ...
  Reading mesh ...
      181070 cells,     4 cell zones ...
          36824 mixed cells,  zone id: 2
         108032 mixed cells,  zone id: 4
          27008 mixed cells,  zone id: 12
           9206 mixed cells,  zone id: 11
      309160 faces,    14 face zones ...
          65137 2D interior faces,  zone id: 3
         181145 2D interior faces,  zone id: 5
             42 2D velocity-inlet faces,  zone id: 6
             38 2D pressure-outlet faces,  zone id: 7
             40 2D velocity-inlet faces,  zone id: 8
            458 2D interior faces,  zone id: 9
            456 2D interior faces,  zone id: 10
            228 2D parent-face faces,  zone id: 19
            229 2D parent-face faces,  zone id: 18
             20 2D parent-face faces,  zone id: 17
             19 2D parent-face faces,  zone id: 16
             21 2D parent-face faces,  zone id: 15
          45157 2D parent-face faces,  zone id: 14
          16170 2D parent-face faces,  zone id: 13
      102461 nodes,     1 node zone  ...
  Done.


Building...
     mesh
     materials,
     interface,
     domains,
	mixture
     zones,
	outlet
	inlet
	interior-fluid
	interior-porous
	symmetry
	upper
	lower
	fluid
	porous
WARNING: "Smooth" contours can't be displayed when node-values is set to off. Changing the Coloring type to "Banded".
     parallel,
Done.
(cx-gui-do cx-activate-item "ToolBar*Mesh Display*fl_mesh_svg_graphics_toolbar")
(cx-gui-do cx-activate-item "Mesh Display*PanelButtons*PushButton1(OK)")
(cx-gui-do cx-activate-item "Mesh Display*PanelButtons*PushButton2(Cancel)")
(cx-use-window-id 51)
(dolly-camera -15.0772 11.7264 0)
(cx-gui-do cx-activate-item "MenuBar*ReadSubMenu*Journal...")

Reading journal file C:/Users/V.Chepuri/OneDrive - Cranfield University/irp/pablo/re_20000/AOA_0/template.jou...

> ;change to correct dir
chdir C:\Users\Usuario\Desktop\CFD_MSc\Publication\data\field_data\homogeneous_sweeps_AoA4\porous_ID0007
Error: Unable to change directory to C:\\Users\\Usuario\\Desktop\\CFD_MSc\\Publication\\data\\field_data\\homogeneous_sweeps_AoA4\\porous_ID0007.\\n
> file/read-case template_medium.cas.h5 Note: Rank = 0: Process affinity not being set (6).

       Clearing partially read grid.

Reading from 37PCL050:"C:\Users\V.Chepuri\OneDrive - Cranfield University\irp\pablo\re_20000\AOA_0\template_medium.cas.h5" in NODE0 mode ...
  Reading mesh ...
      181070 cells,     4 cell zones ...
          36824 mixed cells,  zone id: 2
         108032 mixed cells,  zone id: 4
          27008 mixed cells,  zone id: 12
           9206 mixed cells,  zone id: 11
      309160 faces,    14 face zones ...
          65137 2D interior faces,  zone id: 3
         181145 2D interior faces,  zone id: 5
             42 2D velocity-inlet faces,  zone id: 6
             38 2D pressure-outlet faces,  zone id: 7
             40 2D velocity-inlet faces,  zone id: 8
            458 2D interior faces,  zone id: 9
            456 2D interior faces,  zone id: 10
            228 2D parent-face faces,  zone id: 19
            229 2D parent-face faces,  zone id: 18
             20 2D parent-face faces,  zone id: 17
             19 2D parent-face faces,  zone id: 16
             21 2D parent-face faces,  zone id: 15
          45157 2D parent-face faces,  zone id: 14
          16170 2D parent-face faces,  zone id: 13
      102461 nodes,     1 node zone  ...
  Done.


Building...
     mesh
     materials,
     interface,
     domains,
	mixture
     zones,
	outlet
	inlet
	interior-fluid
	interior-porous
	symmetry
	upper
	lower
	fluid
	porous
WARNING: "Smooth" contours can't be displayed when node-values is set to off. Changing the Coloring type to "Banded".
     parallel,
Done.
OK


Overwrite confirmations (/file/set-batch-options ...)
are on -- will therefore ignore the following journal
Error: invalid command: OK


> 
adjoint/                parallel/               server/
define/                 parametric-study/       solve/
display/                plot/                   surface/
exit                    preferences/            views/
file/                   print-license-usage
mesh/                   report/

> ;modify permeability parameters
define/named-expressions/edit a definition " 0.0 " q q q

> define/named-expressions/edit b definition " 0.0 " q q q

> define/named-expressions/edit c definition " 0.0 " q q q

> define/named-expressions/edit d definition " 0.0 " q q q

> define/named-expressions/edit e1 definition " -5.0 " q q q

> define/named-expressions/edit a2 definition " 0.0 " q q q

> define/named-expressions/edit b2 definition " 0.0 " q q q

> define/named-expressions/edit c2 definition " 0.0 " q q q

> define/named-expressions/edit d2 definition " 0.0 " q q q

> define/named-expressions/edit e2 definition " -5.0 " q q q

> 
adjoint/                parallel/               server/
define/                 parametric-study/       solve/
display/                plot/                   surface/
exit                    preferences/            views/
file/                   print-license-usage
mesh/                   report/

> ;run simulation
solve/initialize/initialize-flow

> solve/iterate 2000

  iter  continuity  x-velocity  y-velocity           k       omega     time/iter
     1  1.0000e+00  2.1817e-07  2.2989e-05  6.4608e-05  3.8545e-04  0:33:19 1999

 turbulent viscosity limited to viscosity ratio of 1.000000e+05 in 16 cells 
     2  1.0000e+00  2.8241e-05  6.4061e-05  6.1009e-05  8.1773e-04  0:33:18 1998

 turbulent viscosity limited to viscosity ratio of 1.000000e+05 in 31 cells 
     3  3.0365e-01  1.0532e-05  3.1515e-05  5.7939e-05  2.4553e-03  0:26:38 1997

 turbulent viscosity limited to viscosity ratio of 1.000000e+05 in 40 cells 
     4  2.2439e-01  4.9708e-06  2.3548e-05  5.5999e-05  1.3779e-03  0:21:17 1996

 turbulent viscosity limited to viscosity ratio of 1.000000e+05 in 48 cells 
     5  1.5288e-01  3.4614e-06  2.1611e-05  5.3497e-05  2.4063e-04  0:17:01 1995

 turbulent viscosity limited to viscosity ratio of 1.000000e+05 in 51 cells 
     6  1.1077e-01  3.0579e-06  2.0883e-05  5.0972e-05  1.7649e-04  0:13:37 1994

 turbulent viscosity limited to viscosity ratio of 1.000000e+05 in 51 cells 
     7  7.8694e-02  2.8070e-06  2.0600e-05  4.8733e-05  7.6911e-05  0:10:53 1993

 turbulent viscosity limited to viscosity ratio of 1.000000e+05 in 47 cells 
     8  5.4637e-02  2.6462e-06  2.0484e-05  4.6730e-05  6.4834e-05  0:15:21 1992

 turbulent viscosity limited to viscosity ratio of 1.000000e+05 in 45 cells 
     9  3.8515e-02  2.5387e-06  2.0432e-05  4.4955e-05  5.7648e-05  0:12:16 1991

 turbulent viscosity limited to viscosity ratio of 1.000000e+05 in 45 cells 
    10  2.7935e-02  2.4633e-06  2.0363e-05  4.3325e-05  5.2868e-05  0:09:49 1990

 turbulent viscosity limited to viscosity ratio of 1.000000e+05 in 43 cells 
    11  2.2150e-02  2.4002e-06  2.0231e-05  4.1821e-05  5.1253e-05  0:07:51 1989

 turbulent viscosity limited to viscosity ratio of 1.000000e+05 in 41 cells 

  iter  continuity  x-velocity  y-velocity           k       omega     time/iter
    12  1.8539e-02  2.3467e-06  2.0090e-05  4.0429e-05  5.3312e-05  0:06:16 1988

 turbulent viscosity limited to viscosity ratio of 1.000000e+05 in 40 cells 
    13  1.5906e-02  2.3052e-06  1.9961e-05  3.9138e-05  5.9603e-05  0:05:01 1987

 turbulent viscosity limited to viscosity ratio of 1.000000e+05 in 37 cells 
    14  1.4147e-02  2.2718e-06  1.9843e-05  3.7947e-05  6.1015e-05  0:10:38 1986

 turbulent viscosity limited to viscosity ratio of 1.000000e+05 in 35 cells 
    15  1.2659e-02  2.2431e-06  1.9735e-05  3.6843e-05  5.8382e-05  0:08:30 1985

 turbulent viscosity limited to viscosity ratio of 1.000000e+05 in 34 cells 
    16  1.1418e-02  2.2185e-06  1.9635e-05  3.5808e-05  5.6051e-05  0:06:48 1984

 turbulent viscosity limited to viscosity ratio of 1.000000e+05 in 33 cells 
    17  1.0818e-02  2.1975e-06  1.9539e-05  3.4837e-05  5.7499e-05  0:05:26 1983

 turbulent viscosity limited to viscosity ratio of 1.000000e+05 in 31 cells 
    18  1.0432e-02  2.1784e-06  1.9444e-05  3.3927e-05  5.6555e-05  0:04:21 1982

 turbulent viscosity limited to viscosity ratio of 1.000000e+05 in 29 cells 
    19  9.8957e-03  2.1604e-06  1.9348e-05  3.3072e-05  5.6613e-05  0:03:28 1981

 turbulent viscosity limited to viscosity ratio of 1.000000e+05 in 27 cells 
    20  9.6595e-03  2.1440e-06  1.9252e-05  3.2261e-05  5.4293e-05  0:09:23 1980

 turbulent viscosity limited to viscosity ratio of 1.000000e+05 in 27 cells 
    21  9.4904e-03  2.1290e-06  1.9157e-05  3.1499e-05  5.4767e-05  0:07:30 1979

 turbulent viscosity limited to viscosity ratio of 1.000000e+05 in 28 cells 
    22  9.4874e-03  2.1143e-06  1.9061e-05  3.0773e-05  4.8556e-05  0:06:00 1978

 turbulent viscosity limited to viscosity ratio of 1.000000e+05 in 27 cells 

  iter  continuity  x-velocity  y-velocity           k       omega     time/iter
    23  9.8359e-03  2.1009e-06  1.8966e-05  3.0080e-05  4.6622e-05  0:04:48 1977

 turbulent viscosity limited to viscosity ratio of 1.000000e+05 in 26 cells 
    24  9.7320e-03  2.0872e-06  1.8871e-05  2.9422e-05  4.4024e-05  0:03:50 1976

 turbulent viscosity limited to viscosity ratio of 1.000000e+05 in 24 cells 
    25  9.6733e-03  2.0743e-06  1.8777e-05  2.8799e-05  4.1717e-05  0:09:39 1975

 turbulent viscosity limited to viscosity ratio of 1.000000e+05 in 23 cells 
    26  9.3988e-03  2.0611e-06  1.8683e-05  2.8204e-05  4.1955e-05  0:07:43 1974

 turbulent viscosity limited to viscosity ratio of 1.000000e+05 in 21 cells 
    27  9.5869e-03  2.0490e-06  1.8592e-05  2.7638e-05  3.9842e-05  0:06:10 1973

 turbulent viscosity limited to viscosity ratio of 1.000000e+05 in 23 cells 
    28  9.8474e-03  2.0375e-06  1.8500e-05  2.7096e-05  3.7416e-05  0:04:56 1972

 turbulent viscosity limited to viscosity ratio of 1.000000e+05 in 24 cells 
    29  1.0020e-02  2.0265e-06  1.8409e-05  2.6577e-05  3.8505e-05  0:03:57 1971

 turbulent viscosity limited to viscosity ratio of 1.000000e+05 in 22 cells 
    30  9.7673e-03  2.0151e-06  1.8318e-05  2.6081e-05  3.6850e-05  0:03:09 1970

 turbulent viscosity limited to viscosity ratio of 1.000000e+05 in 20 cells 
    31  9.7181e-03  2.0037e-06  1.8229e-05  2.5604e-05  3.5046e-05  0:09:05 1969

 turbulent viscosity limited to viscosity ratio of 1.000000e+05 in 19 cells 
    32  9.7392e-03  1.9924e-06  1.8139e-05  2.5147e-05  3.4265e-05  0:07:16 1968

 turbulent viscosity limited to viscosity ratio of 1.000000e+05 in 19 cells 
    33  9.7219e-03  1.9815e-06  1.8050e-05  2.4710e-05  3.3650e-05  0:05:49 1967

 turbulent viscosity limited to viscosity ratio of 1.000000e+05 in 18 cells 

  iter  continuity  x-velocity  y-velocity           k       omega     time/iter
    34  9.7778e-03  1.9711e-06  1.7961e-05  2.4289e-05  3.2793e-05  0:04:39 1966

 turbulent viscosity limited to viscosity ratio of 1.000000e+05 in 17 cells 
    35  9.6799e-03  1.9601e-06  1.7874e-05  2.3884e-05  3.4591e-05  0:03:43 1965

 turbulent viscosity limited to viscosity ratio of 1.000000e+05 in 18 cells 
    36  9.7926e-03  1.9493e-06  1.7788e-05  2.3493e-05  3.5779e-05  0:02:58 1964

 turbulent viscosity limited to viscosity ratio of 1.000000e+05 in 17 cells 
    37  9.7368e-03  1.9389e-06  1.7702e-05  2.3119e-05  3.6457e-05  0:08:55 1963

 turbulent viscosity limited to viscosity ratio of 1.000000e+05 in 14 cells 
    38  9.7093e-03  1.9284e-06  1.7617e-05  2.2755e-05  3.5283e-05  0:07:08 1962

 turbulent viscosity limited to viscosity ratio of 1.000000e+05 in 15 cells 
    39  9.8847e-03  1.9181e-06  1.7532e-05  2.2405e-05  3.3907e-05  0:05:42 1961

 turbulent viscosity limited to viscosity ratio of 1.000000e+05 in 13 cells 
    40  9.9829e-03  1.9071e-06  1.7448e-05  2.2069e-05  3.3487e-05  0:04:34 1960

 turbulent viscosity limited to viscosity ratio of 1.000000e+05 in 14 cells 
    41  9.9904e-03  1.8966e-06  1.7362e-05  2.1743e-05  3.4858e-05  0:10:11 1959

 turbulent viscosity limited to viscosity ratio of 1.000000e+05 in 14 cells 
    42  9.8019e-03  1.8867e-06  1.7278e-05  2.1429e-05  3.8967e-05  0:08:08 1958

 turbulent viscosity limited to viscosity ratio of 1.000000e+05 in 15 cells 
    43  1.0622e-02  1.8775e-06  1.7197e-05  2.1140e-05  4.0824e-05  0:06:30 1957

 turbulent viscosity limited to viscosity ratio of 1.000000e+05 in 15 cells 
    44  1.1261e-02  1.8670e-06  1.7114e-05  2.0850e-05  3.6488e-05  0:05:12 1956

 turbulent viscosity limited to viscosity ratio of 1.000000e+05 in 13 cells 

  iter  continuity  x-velocity  y-velocity           k       omega     time/iter
    45  1.1352e-02  1.8568e-06  1.7031e-05  2.0565e-05  3.5224e-05  0:04:10 1955

 turbulent viscosity limited to viscosity ratio of 1.000000e+05 in 10 cells 
    46  1.1115e-02  1.8470e-06  1.6951e-05  2.0288e-05  3.8447e-05  0:03:20 1954

 turbulent viscosity limited to viscosity ratio of 1.000000e+05 in 5 cells 
    47  1.1370e-02  1.8375e-06  1.6872e-05  2.0031e-05  4.2594e-05  0:09:10 1953

 turbulent viscosity limited to viscosity ratio of 1.000000e+05 in 6 cells 
    48  1.2077e-02  1.8293e-06  1.6793e-05  1.9781e-05  4.5011e-05  0:07:20 1952

 turbulent viscosity limited to viscosity ratio of 1.000000e+05 in 6 cells 
    49  1.2434e-02  1.8209e-06  1.6713e-05  1.9538e-05  4.8373e-05  0:05:52 1951

 turbulent viscosity limited to viscosity ratio of 1.000000e+05 in 3 cells 
    50  1.2489e-02  1.8104e-06  1.6634e-05  1.9301e-05  4.5400e-05  0:04:41 1950

 turbulent viscosity limited to viscosity ratio of 1.000000e+05 in 4 cells 
    51  1.2916e-02  1.8016e-06  1.6556e-05  1.9070e-05  4.2541e-05  0:03:45 1949

 turbulent viscosity limited to viscosity ratio of 1.000000e+05 in 4 cells 
    52  1.2591e-02  1.7913e-06  1.6477e-05  1.8845e-05  4.0207e-05  0:03:00 1948

 turbulent viscosity limited to viscosity ratio of 1.000000e+05 in 3 cells 
    53  1.2607e-02  1.7821e-06  1.6399e-05  1.8623e-05  3.6942e-05  0:08:53 1947

 turbulent viscosity limited to viscosity ratio of 1.000000e+05 in 4 cells 
    54  1.2898e-02  1.7724e-06  1.6321e-05  1.8405e-05  3.6298e-05  0:07:06 1946

 turbulent viscosity limited to viscosity ratio of 1.000000e+05 in 3 cells 
    55  1.2698e-02  1.7627e-06  1.6245e-05  1.8192e-05  3.4397e-05  0:05:41 1945

 turbulent viscosity limited to viscosity ratio of 1.000000e+05 in 4 cells 

  iter  continuity  x-velocity  y-velocity           k       omega     time/iter
    56  1.2352e-02  1.7534e-06  1.6169e-05  1.7983e-05  3.5010e-05  0:04:33 1944

 turbulent viscosity limited to viscosity ratio of 1.000000e+05 in 4 cells 
    57  1.2338e-02  1.7442e-06  1.6092e-05  1.7779e-05  3.3548e-05  0:03:38 1943

 turbulent viscosity limited to viscosity ratio of 1.000000e+05 in 4 cells 
    58  1.2523e-02  1.7352e-06  1.6017e-05  1.7579e-05  3.1477e-05  0:02:54 1942

 turbulent viscosity limited to viscosity ratio of 1.000000e+05 in 3 cells 
    59  1.2652e-02  1.7264e-06  1.5942e-05  1.7380e-05  2.9016e-05  0:08:48 1941

 turbulent viscosity limited to viscosity ratio of 1.000000e+05 in 3 cells 
    60  1.2386e-02  1.7164e-06  1.5867e-05  1.7185e-05  2.7487e-05  0:07:02 1940

 turbulent viscosity limited to viscosity ratio of 1.000000e+05 in 3 cells 
    61  1.2233e-02  1.7070e-06  1.5793e-05  1.6995e-05  2.6372e-05  0:05:37 1939

 turbulent viscosity limited to viscosity ratio of 1.000000e+05 in 2 cells 
    62  1.2229e-02  1.6979e-06  1.5718e-05  1.6808e-05  2.5109e-05  0:04:30 1938
    63  1.2001e-02  1.6889e-06  1.5645e-05  1.6623e-05  2.4410e-05  0:03:36 1937
    64  1.2534e-02  1.6796e-06  1.5572e-05  1.6441e-05  2.3806e-05  0:02:52 1936
    65  1.2700e-02  1.6701e-06  1.5499e-05  1.6260e-05  2.3209e-05  0:08:45 1935
    66  1.2485e-02  1.6612e-06  1.5426e-05  1.6076e-05  2.2485e-05  0:07:00 1934

 turbulent viscosity limited to viscosity ratio of 1.000000e+05 in 1 cells 

  iter  continuity  x-velocity  y-velocity           k       omega     time/iter
    67  1.2320e-02  1.6528e-06  1.5354e-05  1.5893e-05  2.1843e-05  0:05:36 1933

 turbulent viscosity limited to viscosity ratio of 1.000000e+05 in 2 cells 
    68  1.2834e-02  1.6445e-06  1.5283e-05  1.5712e-05  2.1261e-05  0:04:28 1932

 turbulent viscosity limited to viscosity ratio of 1.000000e+05 in 2 cells 
    69  1.2885e-02  1.6357e-06  1.5212e-05  1.5537e-05  2.0916e-05  0:03:35 1931

 turbulent viscosity limited to viscosity ratio of 1.000000e+05 in 2 cells 
    70  1.2726e-02  1.6273e-06  1.5141e-05  1.5364e-05  2.0752e-05  0:02:52 1930
    71  1.2689e-02  1.6188e-06  1.5071e-05  1.5190e-05  2.0640e-05  0:08:43 1929

 turbulent viscosity limited to viscosity ratio of 1.000000e+05 in 1 cells 
    72  1.3018e-02  1.6108e-06  1.5001e-05  1.5017e-05  2.0459e-05  0:06:58 1928

 turbulent viscosity limited to viscosity ratio of 1.000000e+05 in 1 cells 
    73  1.3021e-02  1.6027e-06  1.4931e-05  1.4844e-05  2.0674e-05  0:05:34 1927

 turbulent viscosity limited to viscosity ratio of 1.000000e+05 in 1 cells 
    74  1.3096e-02  1.5945e-06  1.4862e-05  1.4672e-05  2.0897e-05  0:04:27 1926

 turbulent viscosity limited to viscosity ratio of 1.000000e+05 in 2 cells 
    75  1.3095e-02  1.5863e-06  1.4793e-05  1.4500e-05  2.0012e-05  0:03:34 1925

 turbulent viscosity limited to viscosity ratio of 1.000000e+05 in 2 cells 
    76  1.2760e-02  1.5777e-06  1.4725e-05  1.4328e-05  1.9533e-05  0:02:51 1924

 turbulent viscosity limited to viscosity ratio of 1.000000e+05 in 1 cells 
    77  1.2922e-02  1.5695e-06  1.4657e-05  1.4158e-05  1.9157e-05  0:08:41 1923

 turbulent viscosity limited to viscosity ratio of 1.000000e+05 in 1 cells 

  iter  continuity  x-velocity  y-velocity           k       omega     time/iter
    78  1.2985e-02  1.5611e-06  1.4589e-05  1.3988e-05  1.8517e-05  0:06:57 1922

 turbulent viscosity limited to viscosity ratio of 1.000000e+05 in 1 cells 
    79  1.3187e-02  1.5533e-06  1.4522e-05  1.3821e-05  1.7571e-05  0:05:33 1921
    80  1.3714e-02  1.5455e-06  1.4455e-05  1.3659e-05  1.6441e-05  0:04:26 1920
    81  1.3330e-02  1.5365e-06  1.4389e-05  1.3501e-05  1.5687e-05  0:03:33 1919
    82  1.3052e-02  1.5281e-06  1.4322e-05  1.3350e-05  1.5304e-05  0:02:50 1918
    83  1.2627e-02  1.5197e-06  1.4257e-05  1.3203e-05  1.4920e-05  0:08:40 1917
    84  1.2571e-02  1.5115e-06  1.4191e-05  1.3060e-05  1.4887e-05  0:06:55 1916
    85  1.2281e-02  1.5030e-06  1.4126e-05  1.2922e-05  1.5037e-05  0:05:32 1915
    86  1.1976e-02  1.4946e-06  1.4061e-05  1.2788e-05  1.4033e-05  0:04:26 1914
    87  1.1934e-02  1.4867e-06  1.3997e-05  1.2655e-05  1.3741e-05  0:03:32 1913

 turbulent viscosity limited to viscosity ratio of 1.000000e+05 in 1 cells 
    88  1.1741e-02  1.4789e-06  1.3934e-05  1.2525e-05  1.3297e-05  0:09:12 1912

 turbulent viscosity limited to viscosity ratio of 1.000000e+05 in 1 cells 

  iter  continuity  x-velocity  y-velocity           k       omega     time/iter
    89  1.1913e-02  1.4712e-06  1.3870e-05  1.2397e-05  1.2788e-05  0:07:22 1911

 turbulent viscosity limited to viscosity ratio of 1.000000e+05 in 1 cells 
    90  1.1819e-02  1.4637e-06  1.3806e-05  1.2271e-05  1.2614e-05  0:05:53 1910

 turbulent viscosity limited to viscosity ratio of 1.000000e+05 in 1 cells 
    91  1.1589e-02  1.4565e-06  1.3743e-05  1.2145e-05  1.2863e-05  0:04:42 1909

 turbulent viscosity limited to viscosity ratio of 1.000000e+05 in 1 cells 
    92  1.1485e-02  1.4492e-06  1.3680e-05  1.2020e-05  1.0828e-05  0:03:46 1908
    93  1.1293e-02  1.4416e-06  1.3618e-05  1.1895e-05  9.9347e-06  0:03:00 1907
    94  1.1242e-02  1.4345e-06  1.3556e-05  1.1770e-05  9.3506e-06  0:08:46 1906
    95  1.1084e-02  1.4277e-06  1.3494e-05  1.1643e-05  8.8056e-06  0:07:00 1905
    96  1.0974e-02  1.4209e-06  1.3432e-05  1.1516e-05  8.4772e-06  0:05:36 1904
    97  1.1134e-02  1.4139e-06  1.3370e-05  1.1388e-05  8.2026e-06  0:04:29 1903
    98  1.1157e-02  1.4070e-06  1.3309e-05  1.1259e-05  8.0037e-06  0:03:35 1902
    99  1.1143e-02  1.4002e-06  1.3248e-05  1.1130e-05  7.8699e-06  0:02:52 1901

  iter  continuity  x-velocity  y-velocity           k       omega     time/iter
   100  1.0721e-02  1.3933e-06  1.3188e-05  1.1001e-05  7.8087e-06  0:08:37 1900
   101  1.0808e-02  1.3864e-06  1.3127e-05  1.0875e-05  7.6845e-06  0:06:54 1899
   102  1.0691e-02  1.3793e-06  1.3068e-05  1.0752e-05  7.4345e-06  0:05:31 1898
   103  1.0712e-02  1.3718e-06  1.3009e-05  1.0634e-05  7.1589e-06  0:04:24 1897
   104  1.0511e-02  1.3637e-06  1.2950e-05  1.0520e-05  6.8042e-06  0:03:31 1896
   105  1.0184e-02  1.3560e-06  1.2892e-05  1.0412e-05  6.4072e-06  0:02:49 1895
   106  1.0055e-02  1.3486e-06  1.2834e-05  1.0309e-05  6.0581e-06  0:08:34 1894
   107  9.6375e-03  1.3405e-06  1.2777e-05  1.0210e-05  5.8257e-06  0:06:51 1893
   108  9.1849e-03  1.3332e-06  1.2720e-05  1.0115e-05  5.6349e-06  0:05:29 1892
   109  9.2255e-03  1.3257e-06  1.2664e-05  1.0025e-05  5.4838e-06  0:04:23 1891
   110  9.1957e-03  1.3185e-06  1.2607e-05  9.9372e-06  5.3597e-06  0:03:30 1890

  iter  continuity  x-velocity  y-velocity           k       omega     time/iter
   111  9.2040e-03  1.3115e-06  1.2551e-05  9.8528e-06  5.2478e-06  0:02:48 1889
   112  9.1312e-03  1.3048e-06  1.2494e-05  9.7711e-06  5.1543e-06  0:08:32 1888
   113  8.9019e-03  1.2981e-06  1.2438e-05  9.6917e-06  5.0749e-06  0:06:49 1887
   114  8.7228e-03  1.2915e-06  1.2383e-05  9.6145e-06  5.0029e-06  0:05:27 1886
   115  8.5046e-03  1.2850e-06  1.2327e-05  9.5394e-06  4.9336e-06  0:04:22 1885
   116  8.4494e-03  1.2783e-06  1.2272e-05  9.4660e-06  4.8687e-06  0:03:29 1884
   117  8.3257e-03  1.2718e-06  1.2218e-05  9.3943e-06  4.8032e-06  0:02:47 1883
   118  8.3008e-03  1.2651e-06  1.2163e-05  9.3242e-06  4.7372e-06  0:02:14 1882
   119  8.1602e-03  1.2587e-06  1.2109e-05  9.2555e-06  4.6844e-06  0:08:03 1881
   120  8.1144e-03  1.2523e-06  1.2055e-05  9.1881e-06  4.6402e-06  0:06:26 1880
   121  8.0458e-03  1.2460e-06  1.2001e-05  9.1220e-06  4.5915e-06  0:05:09 1879

  iter  continuity  x-velocity  y-velocity           k       omega     time/iter
   122  7.9550e-03  1.2399e-06  1.1948e-05  9.0570e-06  4.5492e-06  0:04:07 1878
   123  7.8831e-03  1.2337e-06  1.1895e-05  8.9932e-06  4.5061e-06  0:03:17 1877
   124  7.7458e-03  1.2277e-06  1.1842e-05  8.9305e-06  4.4637e-06  0:02:38 1876
   125  7.5302e-03  1.2212e-06  1.1789e-05  8.8689e-06  4.4241e-06  0:08:21 1875
   126  7.4147e-03  1.2152e-06  1.1737e-05  8.8083e-06  4.3825e-06  0:06:41 1874
   127  7.3331e-03  1.2091e-06  1.1685e-05  8.7488e-06  4.3426e-06  0:05:20 1873
   128  7.2533e-03  1.2030e-06  1.1633e-05  8.6902e-06  4.3066e-06  0:04:16 1872
   129  7.1375e-03  1.1971e-06  1.1581e-05  8.6325e-06  4.2686e-06  0:03:25 1871
   130  7.0171e-03  1.1911e-06  1.1530e-05  8.5758e-06  4.2273e-06  0:02:44 1870
   131  6.9448e-03  1.1851e-06  1.1479e-05  8.5200e-06  4.1892e-06  0:08:25 1869
   132  6.9147e-03  1.1791e-06  1.1428e-05  8.4650e-06  4.1505e-06  0:06:44 1868

  iter  continuity  x-velocity  y-velocity           k       omega     time/iter
   133  6.7304e-03  1.1733e-06  1.1377e-05  8.4108e-06  4.1104e-06  0:05:23 1867
   134  6.5875e-03  1.1675e-06  1.1327e-05  8.3574e-06  4.0651e-06  0:04:18 1866
   135  6.3702e-03  1.1615e-06  1.1276e-05  8.3047e-06  4.0291e-06  0:09:39 1865
   136  6.2907e-03  1.1556e-06  1.1226e-05  8.2529e-06  4.0029e-06  0:07:43 1864
   137  6.2854e-03  1.1499e-06  1.1177e-05  8.2016e-06  3.9779e-06  0:06:10 1863
   138  6.1592e-03  1.1440e-06  1.1127e-05  8.1511e-06  3.9492e-06  0:04:56 1862
   139  6.1189e-03  1.1384e-06  1.1078e-05  8.1011e-06  3.9221e-06  0:03:57 1861
   140  6.1526e-03  1.1328e-06  1.1029e-05  8.0519e-06  3.8930e-06  0:03:09 1860
   141  6.0365e-03  1.1269e-06  1.0980e-05  8.0033e-06  3.8611e-06  0:08:43 1859
   142  5.8540e-03  1.1211e-06  1.0931e-05  7.9555e-06  3.8291e-06  0:06:58 1858
   143  5.7404e-03  1.1156e-06  1.0883e-05  7.9082e-06  3.7952e-06  0:05:34 1857

  iter  continuity  x-velocity  y-velocity           k       omega     time/iter
   144  5.5963e-03  1.1098e-06  1.0835e-05  7.8616e-06  3.7626e-06  0:04:27 1856
   145  5.5146e-03  1.1042e-06  1.0787e-05  7.8155e-06  3.7310e-06  0:03:34 1855
   146  5.4105e-03  1.0985e-06  1.0739e-05  7.7702e-06  3.6974e-06  0:02:51 1854
   147  5.3749e-03  1.0931e-06  1.0692e-05  7.7254e-06  3.6611e-06  0:02:17 1853
   148  5.2602e-03  1.0873e-06  1.0644e-05  7.6812e-06  3.6291e-06  0:08:00 1852
   149  5.2182e-03  1.0818e-06  1.0597e-05  7.6376e-06  3.6023e-06  0:06:24 1851
   150  5.0991e-03  1.0761e-06  1.0550e-05  7.5945e-06  3.5775e-06  0:05:07 1850
   151  5.0412e-03  1.0705e-06  1.0504e-05  7.5520e-06  3.5512e-06  0:04:05 1849
   152  4.9196e-03  1.0652e-06  1.0457e-05  7.5101e-06  3.5250e-06  0:03:16 1848
   153  4.9059e-03  1.0597e-06  1.0411e-05  7.4687e-06  3.4949e-06  0:02:37 1847
   154  4.8711e-03  1.0542e-06  1.0366e-05  7.4277e-06  3.4650e-06  0:08:15 1846

  iter  continuity  x-velocity  y-velocity           k       omega     time/iter
   155  4.8622e-03  1.0486e-06  1.0320e-05  7.3873e-06  3.4388e-06  0:06:35 1845
   156  4.8658e-03  1.0431e-06  1.0274e-05  7.3473e-06  3.4182e-06  0:05:16 1844
   157  4.8536e-03  1.0379e-06  1.0229e-05  7.3079e-06  3.3988e-06  0:04:13 1843
   158  4.8250e-03  1.0326e-06  1.0184e-05  7.2689e-06  3.3737e-06  0:03:22 1842
   159  4.7649e-03  1.0273e-06  1.0139e-05  7.2303e-06  3.3452e-06  0:02:42 1841
   160  4.6127e-03  1.0221e-06  1.0094e-05  7.1922e-06  3.3169e-06  0:08:17 1840
   161  4.5315e-03  1.0168e-06  1.0050e-05  7.1546e-06  3.2881e-06  0:06:38 1839
   162  4.3234e-03  1.0115e-06  1.0006e-05  7.1174e-06  3.2640e-06  0:05:18 1838
   163  4.2939e-03  1.0062e-06  9.9618e-06  7.0806e-06  3.2417e-06  0:04:14 1837
   164  4.2905e-03  1.0009e-06  9.9180e-06  7.0443e-06  3.2195e-06  0:03:23 1836
   165  4.2734e-03  9.9573e-07  9.8746e-06  7.0084e-06  3.2004e-06  0:02:42 1835

  iter  continuity  x-velocity  y-velocity           k       omega     time/iter
   166  4.3205e-03  9.9069e-07  9.8314e-06  6.9729e-06  3.1790e-06  0:08:17 1834
   167  4.3785e-03  9.8565e-07  9.7883e-06  6.9378e-06  3.1587e-06  0:06:37 1833
   168  4.3320e-03  9.8048e-07  9.7453e-06  6.9032e-06  3.1382e-06  0:05:18 1832
   169  4.2084e-03  9.7537e-07  9.7026e-06  6.8689e-06  3.1136e-06  0:04:14 1831
   170  4.1525e-03  9.7021e-07  9.6601e-06  6.8351e-06  3.0915e-06  0:03:23 1830
   171  4.1675e-03  9.6523e-07  9.6178e-06  6.8016e-06  3.0719e-06  0:02:42 1829
   172  4.1532e-03  9.6017e-07  9.5757e-06  6.7686e-06  3.0526e-06  0:02:10 1828
   173  4.0449e-03  9.5518e-07  9.5338e-06  6.7359e-06  3.0379e-06  0:07:49 1827
   174  3.8806e-03  9.5015e-07  9.4920e-06  6.7035e-06  3.0205e-06  0:06:15 1826
   175  3.8257e-03  9.4520e-07  9.4505e-06  6.6716e-06  2.9979e-06  0:05:00 1825
   176  3.7486e-03  9.4008e-07  9.4092e-06  6.6400e-06  2.9695e-06  0:04:00 1824

  iter  continuity  x-velocity  y-velocity           k       omega     time/iter
   177  3.6844e-03  9.3524e-07  9.3681e-06  6.6087e-06  2.9420e-06  0:03:12 1823
   178  3.6210e-03  9.3039e-07  9.3271e-06  6.5778e-06  2.9143e-06  0:02:33 1822
   179  3.5608e-03  9.2547e-07  9.2863e-06  6.5472e-06  2.8888e-06  0:08:07 1821
   180  3.5639e-03  9.2067e-07  9.2458e-06  6.5170e-06  2.8682e-06  0:06:29 1820
   181  3.5142e-03  9.1573e-07  9.2057e-06  6.4870e-06  2.8506e-06  0:05:11 1819
   182  3.5223e-03  9.1088e-07  9.1658e-06  6.4574e-06  2.8352e-06  0:04:09 1818
   183  3.4902e-03  9.0603e-07  9.1260e-06  6.4281e-06  2.8202e-06  0:09:22 1817
   184  3.4225e-03  9.0122e-07  9.0861e-06  6.3991e-06  2.8050e-06  0:07:30 1816
   185  3.4149e-03  8.9654e-07  9.0464e-06  6.3704e-06  2.7899e-06  0:06:00 1815
   186  3.4130e-03  8.9193e-07  9.0070e-06  6.3420e-06  2.7741e-06  0:04:47 1814
   187  3.4202e-03  8.8731e-07  8.9679e-06  6.3138e-06  2.7562e-06  0:03:50 1813

  iter  continuity  x-velocity  y-velocity           k       omega     time/iter
   188  3.4337e-03  8.8269e-07  8.9290e-06  6.2860e-06  2.7396e-06  0:03:04 1812
   189  3.4549e-03  8.7799e-07  8.8903e-06  6.2584e-06  2.7219e-06  0:02:27 1811
   190  3.3978e-03  8.7332e-07  8.8517e-06  6.2311e-06  2.7046e-06  0:07:59 1810
   191  3.3366e-03  8.6870e-07  8.8132e-06  6.2041e-06  2.6880e-06  0:06:23 1809
   192  3.2502e-03  8.6410e-07  8.7749e-06  6.1774e-06  2.6681e-06  0:05:07 1808
   193  3.2040e-03  8.5960e-07  8.7368e-06  6.1509e-06  2.6452e-06  0:04:05 1807
   194  3.1825e-03  8.5505e-07  8.6989e-06  6.1247e-06  2.6188e-06  0:03:16 1806
   195  3.1279e-03  8.5040e-07  8.6613e-06  6.0987e-06  2.5936e-06  0:02:37 1805
   196  3.0485e-03  8.4582e-07  8.6238e-06  6.0730e-06  2.5756e-06  0:08:06 1804
   197  2.9867e-03  8.4141e-07  8.5866e-06  6.0475e-06  2.5604e-06  0:06:29 1803
   198  2.9667e-03  8.3694e-07  8.5495e-06  6.0223e-06  2.5487e-06  0:05:11 1802

  iter  continuity  x-velocity  y-velocity           k       omega     time/iter
   199  2.9599e-03  8.3253e-07  8.5126e-06  5.9973e-06  2.5383e-06  0:04:08 1801
   200  2.9549e-03  8.2814e-07  8.4759e-06  5.9725e-06  2.5254e-06  0:03:19 1800
   201  2.9169e-03  8.2374e-07  8.4393e-06  5.9480e-06  2.5133e-06  0:02:39 1799
   202  2.9027e-03  8.1944e-07  8.4028e-06  5.9237e-06  2.5004e-06  0:08:07 1798
   203  2.8950e-03  8.1506e-07  8.3665e-06  5.8996e-06  2.4871e-06  0:06:29 1797
   204  2.8548e-03  8.1066e-07  8.3305e-06  5.8758e-06  2.4737e-06  0:05:11 1796
   205  2.7979e-03  8.0637e-07  8.2946e-06  5.8521e-06  2.4580e-06  0:04:09 1795
   206  2.7477e-03  8.0213e-07  8.2589e-06  5.8287e-06  2.4408e-06  0:03:19 1794
   207  2.7523e-03  7.9798e-07  8.2233e-06  5.8055e-06  2.4268e-06  0:02:39 1793
   208  2.7418e-03  7.9376e-07  8.1880e-06  5.7825e-06  2.4157e-06  0:08:06 1792
   209  2.7508e-03  7.8960e-07  8.1527e-06  5.7597e-06  2.4025e-06  0:06:28 1791

  iter  continuity  x-velocity  y-velocity           k       omega     time/iter
   210  2.7336e-03  7.8537e-07  8.1176e-06  5.7371e-06  2.3879e-06  0:05:10 1790
   211  2.7035e-03  7.8117e-07  8.0827e-06  5.7147e-06  2.3723e-06  0:04:08 1789
   212  2.6545e-03  7.7700e-07  8.0480e-06  5.6926e-06  2.3558e-06  0:03:18 1788
   213  2.6110e-03  7.7290e-07  8.0135e-06  5.6706e-06  2.3374e-06  0:02:39 1787
   214  2.5981e-03  7.6871e-07  7.9791e-06  5.6488e-06  2.3224e-06  0:08:04 1786
   215  2.5836e-03  7.6456e-07  7.9449e-06  5.6273e-06  2.3098e-06  0:06:27 1785
   216  2.5880e-03  7.6063e-07  7.9109e-06  5.6059e-06  2.2951e-06  0:05:09 1784
   217  2.6006e-03  7.5664e-07  7.8771e-06  5.5847e-06  2.2794e-06  0:04:07 1783
   218  2.5952e-03  7.5268e-07  7.8434e-06  5.5636e-06  2.2671e-06  0:03:18 1782
   219  2.6039e-03  7.4860e-07  7.8098e-06  5.5428e-06  2.2539e-06  0:02:38 1781
   220  2.5828e-03  7.4461e-07  7.7765e-06  5.5221e-06  2.2411e-06  0:02:06 1780

  iter  continuity  x-velocity  y-velocity           k       omega     time/iter
   221  2.5690e-03  7.4064e-07  7.7432e-06  5.5016e-06  2.2277e-06  0:07:37 1779
   222  2.5703e-03  7.3674e-07  7.7101e-06  5.4813e-06  2.2148e-06  0:06:05 1778
   223  2.5547e-03  7.3281e-07  7.6772e-06  5.4611e-06  2.2011e-06  0:04:52 1777
   224  2.5257e-03  7.2896e-07  7.6444e-06  5.4411e-06  2.1878e-06  0:03:54 1776
   225  2.5189e-03  7.2508e-07  7.6118e-06  5.4213e-06  2.1765e-06  0:03:07 1775
   226  2.4833e-03  7.2113e-07  7.5794e-06  5.4016e-06  2.1636e-06  0:08:24 1774
   227  2.4226e-03  7.1726e-07  7.5471e-06  5.3821e-06  2.1515e-06  0:06:43 1773
   228  2.3756e-03  7.1343e-07  7.5150e-06  5.3628e-06  2.1407e-06  0:05:22 1772
   229  2.3219e-03  7.0961e-07  7.4831e-06  5.3436e-06  2.1307e-06  0:04:18 1771
   230  2.3184e-03  7.0587e-07  7.4512e-06  5.3245e-06  2.1199e-06  0:03:26 1770
   231  2.3101e-03  7.0213e-07  7.4195e-06  5.3056e-06  2.1078e-06  0:08:39 1769

  iter  continuity  x-velocity  y-velocity           k       omega     time/iter
   232  2.2764e-03  6.9836e-07  7.3879e-06  5.2869e-06  2.0934e-06  0:06:55 1768
   233  2.2574e-03  6.9465e-07  7.3566e-06  5.2683e-06  2.0785e-06  0:05:31 1767
   234  2.2669e-03  6.9099e-07  7.3254e-06  5.2498e-06  2.0658e-06  0:04:25 1766
   235  2.2529e-03  6.8728e-07  7.2943e-06  5.2315e-06  2.0544e-06  0:03:32 1765
   236  2.2364e-03  6.8359e-07  7.2634e-06  5.2133e-06  2.0429e-06  0:02:49 1764
   237  2.2026e-03  6.7998e-07  7.2326e-06  5.1953e-06  2.0323e-06  0:02:15 1763
   238  2.1580e-03  6.7631e-07  7.2020e-06  5.1774e-06  2.0229e-06  0:07:41 1762
   239  2.1230e-03  6.7271e-07  7.1715e-06  5.1596e-06  2.0129e-06  0:06:08 1761
   240  2.1129e-03  6.6915e-07  7.1412e-06  5.1420e-06  2.0014e-06  0:04:55 1760
   241  2.0779e-03  6.6560e-07  7.1110e-06  5.1245e-06  1.9928e-06  0:03:55 1759
   242  2.0533e-03  6.6205e-07  7.0810e-06  5.1071e-06  1.9839e-06  0:03:08 1758

  iter  continuity  x-velocity  y-velocity           k       omega     time/iter
   243  2.0420e-03  6.5849e-07  7.0511e-06  5.0899e-06  1.9735e-06  0:02:31 1757
   244  2.0262e-03  6.5495e-07  7.0214e-06  5.0728e-06  1.9622e-06  0:07:52 1756
   245  2.0260e-03  6.5148e-07  6.9917e-06  5.0558e-06  1.9485e-06  0:06:17 1755
   246  2.0260e-03  6.4804e-07  6.9623e-06  5.0390e-06  1.9352e-06  0:05:01 1754
   247  2.0110e-03  6.4459e-07  6.9329e-06  5.0222e-06  1.9261e-06  0:04:01 1753
   248  1.9870e-03  6.4118e-07  6.9037e-06  5.0057e-06  1.9173e-06  0:03:13 1752
   249  1.9673e-03  6.3777e-07  6.8747e-06  4.9892e-06  1.9097e-06  0:02:34 1751
   250  1.9332e-03  6.3440e-07  6.8458e-06  4.9728e-06  1.9027e-06  0:07:53 1750
   251  1.9092e-03  6.3107e-07  6.8170e-06  4.9566e-06  1.8959e-06  0:06:18 1749
   252  1.9073e-03  6.2770e-07  6.7884e-06  4.9405e-06  1.8883e-06  0:05:02 1748
   253  1.9107e-03  6.2432e-07  6.7599e-06  4.9245e-06  1.8795e-06  0:04:02 1747

  iter  continuity  x-velocity  y-velocity           k       omega     time/iter
   254  1.9018e-03  6.2100e-07  6.7315e-06  4.9087e-06  1.8676e-06  0:03:13 1746
   255  1.8828e-03  6.1772e-07  6.7033e-06  4.8929e-06  1.8552e-06  0:02:35 1745
   256  1.8693e-03  6.1448e-07  6.6752e-06  4.8773e-06  1.8440e-06  0:07:52 1744
   257  1.8783e-03  6.1126e-07  6.6473e-06  4.8617e-06  1.8347e-06  0:06:18 1743
   258  1.8903e-03  6.0804e-07  6.6194e-06  4.8463e-06  1.8267e-06  0:05:02 1742
   259  1.9205e-03  6.0483e-07  6.5917e-06  4.8310e-06  1.8193e-06  0:04:01 1741
   260  1.9208e-03  6.0155e-07  6.5642e-06  4.8158e-06  1.8116e-06  0:03:13 1740
   261  1.8875e-03  5.9829e-07  6.5368e-06  4.8008e-06  1.8039e-06  0:02:34 1739
   262  1.8867e-03  5.9506e-07  6.5096e-06  4.7858e-06  1.7964e-06  0:02:03 1738
   263  1.8599e-03  5.9190e-07  6.4824e-06  4.7709e-06  1.7871e-06  0:07:26 1737
   264  1.8531e-03  5.8878e-07  6.4554e-06  4.7562e-06  1.7787e-06  0:05:57 1736

  iter  continuity  x-velocity  y-velocity           k       omega     time/iter
   265  1.8634e-03  5.8570e-07  6.4285e-06  4.7415e-06  1.7709e-06  0:04:45 1735
   266  1.8437e-03  5.8262e-07  6.4017e-06  4.7269e-06  1.7623e-06  0:03:48 1734
   267  1.8130e-03  5.7955e-07  6.3750e-06  4.7125e-06  1.7525e-06  0:03:02 1733
   268  1.7733e-03  5.7650e-07  6.3485e-06  4.6981e-06  1.7429e-06  0:02:26 1732
   269  1.7431e-03  5.7344e-07  6.3221e-06  4.6839e-06  1.7341e-06  0:07:43 1731
   270  1.7100e-03  5.7044e-07  6.2958e-06  4.6697e-06  1.7264e-06  0:06:10 1730
   271  1.6781e-03  5.6744e-07  6.2696e-06  4.6557e-06  1.7183e-06  0:04:56 1729
   272  1.6491e-03  5.6444e-07  6.2436e-06  4.6417e-06  1.7094e-06  0:03:57 1728
   273  1.5980e-03  5.6143e-07  6.2177e-06  4.6278e-06  1.7009e-06  0:08:54 1727
   274  1.5893e-03  5.5847e-07  6.1919e-06  4.6141e-06  1.6913e-06  0:07:07 1726
   275  1.5654e-03  5.5551e-07  6.1663e-06  4.6004e-06  1.6806e-06  0:05:42 1725

  iter  continuity  x-velocity  y-velocity           k       omega     time/iter
   276  1.5783e-03  5.5260e-07  6.1407e-06  4.5868e-06  1.6700e-06  0:04:33 1724
   277  1.5729e-03  5.4972e-07  6.1153e-06  4.5733e-06  1.6613e-06  0:03:38 1723
   278  1.5909e-03  5.4688e-07  6.0901e-06  4.5599e-06  1.6534e-06  0:02:55 1722
   279  1.6164e-03  5.4405e-07  6.0649e-06  4.5465e-06  1.6454e-06  0:08:04 1721
   280  1.6206e-03  5.4119e-07  6.0399e-06  4.5333e-06  1.6372e-06  0:06:27 1720
   281  1.6283e-03  5.3836e-07  6.0150e-06  4.5201e-06  1.6295e-06  0:05:09 1719
   282  1.6229e-03  5.3556e-07  5.9902e-06  4.5071e-06  1.6227e-06  0:04:07 1718
   283  1.6258e-03  5.3280e-07  5.9655e-06  4.4941e-06  1.6165e-06  0:03:18 1717
   284  1.6185e-03  5.3004e-07  5.9409e-06  4.4812e-06  1.6101e-06  0:02:38 1716
   285  1.6090e-03  5.2728e-07  5.9165e-06  4.4684e-06  1.6021e-06  0:07:49 1715
   286  1.5972e-03  5.2454e-07  5.8921e-06  4.4556e-06  1.5944e-06  0:06:15 1714

  iter  continuity  x-velocity  y-velocity           k       omega     time/iter
   287  1.5716e-03  5.2183e-07  5.8679e-06  4.4430e-06  1.5862e-06  0:05:00 1713
   288  1.5314e-03  5.1911e-07  5.8438e-06  4.4304e-06  1.5781e-06  0:04:00 1712
   289  1.5139e-03  5.1641e-07  5.8198e-06  4.4179e-06  1.5692e-06  0:03:12 1711
   290  1.4976e-03  5.1374e-07  5.7959e-06  4.4055e-06  1.5618e-06  0:02:33 1710
   291  1.4906e-03  5.1110e-07  5.7721e-06  4.3932e-06  1.5558e-06  0:02:03 1709
   292  1.4688e-03  5.0848e-07  5.7485e-06  4.3809e-06  1.5498e-06  0:07:20 1708
   293  1.4549e-03  5.0591e-07  5.7249e-06  4.3687e-06  1.5434e-06  0:05:52 1707
   294  1.4352e-03  5.0333e-07  5.7014e-06  4.3566e-06  1.5368e-06  0:04:41 1706
   295  1.4111e-03  5.0074e-07  5.6781e-06  4.3446e-06  1.5297e-06  0:03:45 1705
   296  1.3859e-03  4.9818e-07  5.6549e-06  4.3326e-06  1.5226e-06  0:03:00 1704
   297  1.3674e-03  4.9564e-07  5.6318e-06  4.3207e-06  1.5166e-06  0:02:24 1703

  iter  continuity  x-velocity  y-velocity           k       omega     time/iter
   298  1.3572e-03  4.9312e-07  5.6088e-06  4.3089e-06  1.5104e-06  0:07:35 1702
   299  1.3635e-03  4.9061e-07  5.5859e-06  4.2972e-06  1.5044e-06  0:06:04 1701
   300  1.3701e-03  4.8813e-07  5.5632e-06  4.2855e-06  1.4981e-06  0:04:51 1700
   301  1.3820e-03  4.8566e-07  5.5405e-06  4.2739e-06  1.4920e-06  0:03:53 1699
   302  1.3779e-03  4.8319e-07  5.5179e-06  4.2624e-06  1.4854e-06  0:03:06 1698
   303  1.3864e-03  4.8075e-07  5.4955e-06  4.2509e-06  1.4788e-06  0:02:29 1697
   304  1.3740e-03  4.7830e-07  5.4731e-06  4.2395e-06  1.4719e-06  0:07:38 1696
   305  1.3676e-03  4.7588e-07  5.4509e-06  4.2282e-06  1.4651e-06  0:06:06 1695
   306  1.3538e-03  4.7350e-07  5.4287e-06  4.2170e-06  1.4579e-06  0:04:53 1694
   307  1.3361e-03  4.7113e-07  5.4067e-06  4.2058e-06  1.4515e-06  0:03:54 1693
   308  1.3159e-03  4.6878e-07  5.3848e-06  4.1947e-06  1.4451e-06  0:03:07 1692

  iter  continuity  x-velocity  y-velocity           k       omega     time/iter
   309  1.3071e-03  4.6644e-07  5.3629e-06  4.1836e-06  1.4387e-06  0:02:30 1691
   310  1.3051e-03  4.6413e-07  5.3412e-06  4.1726e-06  1.4317e-06  0:02:00 1690
   311  1.3029e-03  4.6183e-07  5.3196e-06  4.1617e-06  1.4249e-06  0:07:13 1689
   312  1.2971e-03  4.5951e-07  5.2981e-06  4.1509e-06  1.4173e-06  0:05:47 1688
   313  1.3014e-03  4.5722e-07  5.2767e-06  4.1401e-06  1.4100e-06  0:04:37 1687
   314  1.2911e-03  4.5495e-07  5.2554e-06  4.1294e-06  1.4030e-06  0:03:42 1686
   315  1.2837e-03  4.5272e-07  5.2342e-06  4.1187e-06  1.3968e-06  0:02:57 1685
   316  1.2775e-03  4.5049e-07  5.2130e-06  4.1081e-06  1.3904e-06  0:02:22 1684
   317  1.2688e-03  4.4827e-07  5.1920e-06  4.0976e-06  1.3841e-06  0:07:30 1683
   318  1.2613e-03  4.4606e-07  5.1711e-06  4.0871e-06  1.3785e-06  0:06:00 1682
   319  1.2524e-03  4.4387e-07  5.1502e-06  4.0767e-06  1.3731e-06  0:04:48 1681

  iter  continuity  x-velocity  y-velocity           k       omega     time/iter
   320  1.2436e-03  4.4170e-07  5.1295e-06  4.0664e-06  1.3680e-06  0:03:50 1680
   321  1.2308e-03  4.3955e-07  5.1088e-06  4.0561e-06  1.3625e-06  0:08:40 1679
   322  1.2099e-03  4.3739e-07  5.0883e-06  4.0458e-06  1.3570e-06  0:06:55 1678
   323  1.1937e-03  4.3525e-07  5.0679e-06  4.0357e-06  1.3514e-06  0:05:32 1677
   324  1.1817e-03  4.3314e-07  5.0475e-06  4.0256e-06  1.3450e-06  0:04:26 1676
   325  1.1748e-03  4.3104e-07  5.0273e-06  4.0155e-06  1.3388e-06  0:03:32 1675
   326  1.1715e-03  4.2896e-07  5.0071e-06  4.0055e-06  1.3326e-06  0:02:50 1674
   327  1.1591e-03  4.2692e-07  4.9871e-06  3.9956e-06  1.3258e-06  0:07:50 1673
   328  1.1536e-03  4.2487e-07  4.9671e-06  3.9857e-06  1.3194e-06  0:06:16 1672
   329  1.1526e-03  4.2285e-07  4.9473e-06  3.9759e-06  1.3127e-06  0:05:01 1671
   330  1.1349e-03  4.2079e-07  4.9275e-06  3.9661e-06  1.3058e-06  0:04:00 1670

  iter  continuity  x-velocity  y-velocity           k       omega     time/iter
   331  1.1213e-03  4.1873e-07  4.9078e-06  3.9564e-06  1.3000e-06  0:03:12 1669
   332  1.1128e-03  4.1671e-07  4.8882e-06  3.9467e-06  1.2946e-06  0:02:34 1668
   333  1.1167e-03  4.1470e-07  4.8687e-06  3.9371e-06  1.2897e-06  0:07:36 1667
   334  1.1126e-03  4.1272e-07  4.8493e-06  3.9276e-06  1.2854e-06  0:06:05 1666
   335  1.1083e-03  4.1074e-07  4.8300e-06  3.9181e-06  1.2802e-06  0:04:52 1665
   336  1.1092e-03  4.0877e-07  4.8108e-06  3.9086e-06  1.2752e-06  0:03:53 1664
   337  1.1091e-03  4.0683e-07  4.7916e-06  3.8992e-06  1.2706e-06  0:03:06 1663
   338  1.0991e-03  4.0491e-07  4.7726e-06  3.8899e-06  1.2659e-06  0:02:29 1662
   339  1.0912e-03  4.0299e-07  4.7537e-06  3.8806e-06  1.2606e-06  0:07:31 1661
   340  1.0792e-03  4.0108e-07  4.7348e-06  3.8713e-06  1.2561e-06  0:06:01 1660
   341  1.0586e-03  3.9919e-07  4.7160e-06  3.8622e-06  1.2508e-06  0:04:49 1659

  iter  continuity  x-velocity  y-velocity           k       omega     time/iter
   342  1.0528e-03  3.9731e-07  4.6973e-06  3.8530e-06  1.2458e-06  0:03:51 1658
   343  1.0479e-03  3.9545e-07  4.6787e-06  3.8439e-06  1.2404e-06  0:03:04 1657
   344  1.0440e-03  3.9361e-07  4.6602e-06  3.8349e-06  1.2348e-06  0:02:27 1656
   345  1.0384e-03  3.9179e-07  4.6418e-06  3.8259e-06  1.2291e-06  0:01:58 1655
   346  1.0265e-03  3.8997e-07  4.6234e-06  3.8169e-06  1.2237e-06  0:07:05 1654
   347  1.0197e-03  3.8817e-07  4.6052e-06  3.8080e-06  1.2180e-06  0:05:40 1653
   348  1.0105e-03  3.8639e-07  4.5870e-06  3.7992e-06  1.2127e-06  0:04:32 1652
   349  1.0012e-03  3.8460e-07  4.5689e-06  3.7904e-06  1.2070e-06  0:03:37 1651
   350  9.8759e-04  3.8280e-07  4.5509e-06  3.7817e-06  1.2009e-06  0:02:54 1650
   351  9.7973e-04  3.8101e-07  4.5330e-06  3.7730e-06  1.1953e-06  0:02:19 1649
   352  9.7901e-04  3.7923e-07  4.5152e-06  3.7643e-06  1.1901e-06  0:07:21 1648

  iter  continuity  x-velocity  y-velocity           k       omega     time/iter
   353  9.7890e-04  3.7745e-07  4.4974e-06  3.7557e-06  1.1850e-06  0:05:52 1647
   354  9.7638e-04  3.7571e-07  4.4797e-06  3.7471e-06  1.1803e-06  0:04:42 1646
   355  9.7306e-04  3.7397e-07  4.4622e-06  3.7386e-06  1.1758e-06  0:03:45 1645
   356  9.7577e-04  3.7227e-07  4.4446e-06  3.7301e-06  1.1712e-06  0:03:00 1644
   357  9.7578e-04  3.7056e-07  4.4272e-06  3.7217e-06  1.1665e-06  0:02:24 1643
   358  9.7082e-04  3.6887e-07  4.4099e-06  3.7133e-06  1.1615e-06  0:07:23 1642
   359  9.6146e-04  3.6718e-07  4.3926e-06  3.7050e-06  1.1563e-06  0:05:55 1641
   360  9.4386e-04  3.6549e-07  4.3754e-06  3.6967e-06  1.1510e-06  0:04:43 1640
   361  9.3076e-04  3.6382e-07  4.3583e-06  3.6884e-06  1.1461e-06  0:03:47 1639
   362  9.2122e-04  3.6216e-07  4.3413e-06  3.6802e-06  1.1409e-06  0:03:01 1638
   363  9.1294e-04  3.6051e-07  4.3243e-06  3.6720e-06  1.1357e-06  0:02:25 1637

  iter  continuity  x-velocity  y-velocity           k       omega     time/iter
   364  9.1292e-04  3.5889e-07  4.3075e-06  3.6639e-06  1.1304e-06  0:07:23 1636
   365  9.0811e-04  3.5724e-07  4.2907e-06  3.6558e-06  1.1253e-06  0:05:54 1635
   366  9.0612e-04  3.5562e-07  4.2740e-06  3.6478e-06  1.1207e-06  0:04:43 1634
   367  8.9901e-04  3.5402e-07  4.2574e-06  3.6398e-06  1.1161e-06  0:03:46 1633
   368  8.9363e-04  3.5244e-07  4.2408e-06  3.6318e-06  1.1118e-06  0:08:27 1632
   369  8.8560e-04  3.5086e-07  4.2243e-06  3.6239e-06  1.1074e-06  0:06:46 1631
   370  8.7982e-04  3.4930e-07  4.2079e-06  3.6160e-06  1.1030e-06  0:05:24 1630
   371  8.6962e-04  3.4774e-07  4.1916e-06  3.6081e-06  1.0986e-06  0:04:19 1629
   372  8.5944e-04  3.4618e-07  4.1753e-06  3.6003e-06  1.0941e-06  0:03:27 1628
   373  8.4270e-04  3.4461e-07  4.1592e-06  3.5926e-06  1.0895e-06  0:02:46 1627
   374  8.3295e-04  3.4306e-07  4.1431e-06  3.5849e-06  1.0847e-06  0:02:13 1626

  iter  continuity  x-velocity  y-velocity           k       omega     time/iter
   375  8.2158e-04  3.4153e-07  4.1270e-06  3.5772e-06  1.0798e-06  0:07:11 1625
   376  8.1804e-04  3.4001e-07  4.1111e-06  3.5695e-06  1.0751e-06  0:05:45 1624
   377  8.1826e-04  3.3852e-07  4.0952e-06  3.5619e-06  1.0705e-06  0:04:35 1623
   378  8.1663e-04  3.3702e-07  4.0794e-06  3.5543e-06  1.0657e-06  0:03:40 1622
   379  8.0779e-04  3.3551e-07  4.0637e-06  3.5468e-06  1.0609e-06  0:02:56 1621
   380  8.0097e-04  3.3402e-07  4.0480e-06  3.5393e-06  1.0562e-06  0:02:21 1620
   381  8.0117e-04  3.3253e-07  4.0325e-06  3.5319e-06  1.0516e-06  0:07:16 1619
   382  7.9341e-04  3.3104e-07  4.0169e-06  3.5244e-06  1.0472e-06  0:05:49 1618
   383  7.9181e-04  3.2958e-07  4.0015e-06  3.5170e-06  1.0429e-06  0:04:39 1617
   384  7.8528e-04  3.2812e-07  3.9861e-06  3.5097e-06  1.0386e-06  0:03:43 1616
   385  7.8532e-04  3.2669e-07  3.9708e-06  3.5024e-06  1.0341e-06  0:02:58 1615

  iter  continuity  x-velocity  y-velocity           k       omega     time/iter
   386  7.8426e-04  3.2526e-07  3.9556e-06  3.4951e-06  1.0299e-06  0:02:23 1614
   387  7.8487e-04  3.2384e-07  3.9405e-06  3.4879e-06  1.0259e-06  0:07:17 1613
   388  7.8266e-04  3.2242e-07  3.9254e-06  3.4807e-06  1.0224e-06  0:05:49 1612
   389  7.7901e-04  3.2101e-07  3.9104e-06  3.4735e-06  1.0185e-06  0:04:39 1611
   390  7.7575e-04  3.1961e-07  3.8954e-06  3.4664e-06  1.0153e-06  0:03:43 1610
   391  7.6915e-04  3.1822e-07  3.8806e-06  3.4593e-06  1.0119e-06  0:02:58 1609
   392  7.6094e-04  3.1684e-07  3.8657e-06  3.4522e-06  1.0090e-06  0:02:23 1608
   393  7.5624e-04  3.1546e-07  3.8510e-06  3.4452e-06  1.0058e-06  0:07:15 1607
   394  7.5192e-04  3.1409e-07  3.8363e-06  3.4382e-06  1.0031e-06  0:05:48 1606
   395  7.4644e-04  3.1272e-07  3.8217e-06  3.4312e-06  1.0003e-06  0:04:38 1605
   396  7.4209e-04  3.1135e-07  3.8072e-06  3.4243e-06  9.9742e-07  0:03:43 1604

  iter  continuity  x-velocity  y-velocity           k       omega     time/iter
   397  7.3811e-04  3.1002e-07  3.7927e-06  3.4174e-06  9.9462e-07  0:02:58 1603
   398  7.3760e-04  3.0869e-07  3.7784e-06  3.4105e-06  9.9181e-07  0:02:22 1602
   399  7.3875e-04  3.0737e-07  3.7640e-06  3.4037e-06  9.8880e-07  0:01:54 1601
   400  7.3646e-04  3.0605e-07  3.7497e-06  3.3969e-06  9.8532e-07  0:06:51 1600
   401  7.2958e-04  3.0474e-07  3.7355e-06  3.3901e-06  9.8120e-07  0:05:29 1599
   402  7.2344e-04  3.0344e-07  3.7214e-06  3.3834e-06  9.7738e-07  0:04:23 1598
   403  7.1505e-04  3.0214e-07  3.7073e-06  3.3767e-06  9.7353e-07  0:03:30 1597
   404  7.0544e-04  3.0084e-07  3.6933e-06  3.3700e-06  9.7007e-07  0:02:48 1596
   405  6.9903e-04  2.9956e-07  3.6793e-06  3.3634e-06  9.6613e-07  0:02:14 1595
   406  6.9067e-04  2.9827e-07  3.6655e-06  3.3568e-06  9.6223e-07  0:07:06 1594
   407  6.8599e-04  2.9700e-07  3.6516e-06  3.3502e-06  9.5850e-07  0:05:41 1593

  iter  continuity  x-velocity  y-velocity           k       omega     time/iter
   408  6.8330e-04  2.9573e-07  3.6379e-06  3.3437e-06  9.5447e-07  0:04:32 1592
   409  6.7758e-04  2.9447e-07  3.6242e-06  3.3371e-06  9.5045e-07  0:03:38 1591
   410  6.7344e-04  2.9322e-07  3.6105e-06  3.3307e-06  9.4637e-07  0:08:12 1590
   411  6.6650e-04  2.9198e-07  3.5970e-06  3.3242e-06  9.4259e-07  0:06:33 1589
   412  6.6044e-04  2.9072e-07  3.5835e-06  3.3178e-06  9.3829e-07  0:05:15 1588
   413  6.5376e-04  2.8949e-07  3.5700e-06  3.3114e-06  9.3433e-07  0:04:11 1587
   414  6.4602e-04  2.8826e-07  3.5566e-06  3.3050e-06  9.3010e-07  0:03:21 1586
   415  6.3995e-04  2.8705e-07  3.5433e-06  3.2987e-06  9.2602e-07  0:02:41 1585
   416  6.3620e-04  2.8585e-07  3.5301e-06  3.2924e-06  9.2192e-07  0:07:25 1584
   417  6.3321e-04  2.8466e-07  3.5169e-06  3.2861e-06  9.1792e-07  0:05:56 1583
   418  6.2617e-04  2.8348e-07  3.5037e-06  3.2799e-06  9.1379e-07  0:04:45 1582

  iter  continuity  x-velocity  y-velocity           k       omega     time/iter
   419  6.2040e-04  2.8229e-07  3.4906e-06  3.2737e-06  9.0989e-07  0:03:48 1581
   420  6.1936e-04  2.8112e-07  3.4776e-06  3.2675e-06  9.0615e-07  0:03:02 1580
   421  6.2021e-04  2.7995e-07  3.4647e-06  3.2613e-06  9.0278e-07  0:02:25 1579
   422  6.2278e-04  2.7879e-07  3.4518e-06  3.2552e-06  8.9943e-07  0:07:12 1578
   423  6.2360e-04  2.7764e-07  3.4389e-06  3.2491e-06  8.9619e-07  0:05:45 1577
   424  6.2377e-04  2.7649e-07  3.4261e-06  3.2430e-06  8.9278e-07  0:04:36 1576
   425  6.2134e-04  2.7534e-07  3.4134e-06  3.2370e-06  8.8931e-07  0:03:41 1575
   426  6.2188e-04  2.7421e-07  3.4007e-06  3.2310e-06  8.8611e-07  0:02:56 1574
   427  6.2060e-04  2.7308e-07  3.3881e-06  3.2250e-06  8.8264e-07  0:02:21 1573
   428  6.2021e-04  2.7197e-07  3.3756e-06  3.2190e-06  8.7936e-07  0:01:53 1572
   429  6.1730e-04  2.7087e-07  3.3631e-06  3.2131e-06  8.7596e-07  0:06:44 1571

  iter  continuity  x-velocity  y-velocity           k       omega     time/iter
   430  6.0954e-04  2.6977e-07  3.3506e-06  3.2072e-06  8.7255e-07  0:05:23 1570
   431  6.0424e-04  2.6869e-07  3.3383e-06  3.2013e-06  8.6893e-07  0:04:18 1569
   432  5.9713e-04  2.6761e-07  3.3259e-06  3.1954e-06  8.6631e-07  0:03:27 1568
   433  5.8701e-04  2.6655e-07  3.3137e-06  3.1896e-06  8.6333e-07  0:02:45 1567
   434  5.7462e-04  2.6539e-07  3.3013e-06  3.1838e-06  8.6078e-07  0:02:12 1566
   435  5.6377e-04  2.6452e-07  3.2893e-06  3.1780e-06  8.5796e-07  0:06:59 1565
   436  5.5534e-04  2.6337e-07  3.2772e-06  3.1722e-06  8.5562e-07  0:05:35 1564
   437  5.5291e-04  2.6248e-07  3.2652e-06  3.1665e-06  8.5257e-07  0:04:28 1563
   438  5.5069e-04  2.6133e-07  3.2531e-06  3.1608e-06  8.4978e-07  0:03:34 1562
   439  5.4934e-04  2.6044e-07  3.2413e-06  3.1551e-06  8.4664e-07  0:02:51 1561
   440  5.4737e-04  2.5932e-07  3.2294e-06  3.1494e-06  8.4373e-07  0:02:17 1560

  iter  continuity  x-velocity  y-velocity           k       omega     time/iter
   441  5.4800e-04  2.5846e-07  3.2176e-06  3.1438e-06  8.4048e-07  0:07:01 1559
   442  5.4668e-04  2.5737e-07  3.2057e-06  3.1382e-06  8.3768e-07  0:05:37 1558
   443  5.4748e-04  2.5652e-07  3.1941e-06  3.1326e-06  8.3446e-07  0:04:29 1557
   444  5.4643e-04  2.5544e-07  3.1824e-06  3.1270e-06  8.3207e-07  0:03:35 1556
   445  5.4370e-04  2.5461e-07  3.1708e-06  3.1215e-06  8.2906e-07  0:02:52 1555
   446  5.4113e-04  2.5356e-07  3.1592e-06  3.1160e-06  8.2635e-07  0:02:18 1554
   447  5.4090e-04  2.5275e-07  3.1477e-06  3.1105e-06  8.2361e-07  0:07:01 1553
   448  5.4001e-04  2.5173e-07  3.1362e-06  3.1051e-06  8.2094e-07  0:05:36 1552
   449  5.3826e-04  2.5093e-07  3.1249e-06  3.0996e-06  8.1850e-07  0:04:29 1551
   450  5.3602e-04  2.5003e-07  3.1136e-06  3.0942e-06  8.1584e-07  0:03:35 1550
   451  5.3615e-04  2.4898e-07  3.1021e-06  3.0888e-06  8.1360e-07  0:02:52 1549

  iter  continuity  x-velocity  y-velocity           k       omega     time/iter
   452  5.3032e-04  2.4823e-07  3.0909e-06  3.0834e-06  8.1062e-07  0:02:17 1548
   453  5.2761e-04  2.4739e-07  3.0798e-06  3.0781e-06  8.0865e-07  0:06:59 1547
   454  5.2595e-04  2.4640e-07  3.0685e-06  3.0728e-06  8.0578e-07  0:05:35 1546
   455  5.2115e-04  2.4567e-07  3.0575e-06  3.0675e-06  8.0336e-07  0:04:28 1545
   456  5.1645e-04  2.4476e-07  3.0464e-06  3.0622e-06  8.0032e-07  0:03:34 1544
   457  5.1454e-04  2.4402e-07  3.0355e-06  3.0570e-06  7.9763e-07  0:02:51 1543
   458  5.1343e-04  2.4311e-07  3.0245e-06  3.0517e-06  7.9430e-07  0:07:25 1542
   459  5.0988e-04  2.4237e-07  3.0136e-06  3.0465e-06  7.9163e-07  0:05:56 1541
   460  5.0833e-04  2.4149e-07  3.0027e-06  3.0413e-06  7.8852e-07  0:04:45 1540
   461  5.0730e-04  2.4078e-07  2.9920e-06  3.0362e-06  7.8599e-07  0:03:48 1539
   462  5.0400e-04  2.3991e-07  2.9812e-06  3.0310e-06  7.8314e-07  0:03:02 1538

  iter  continuity  x-velocity  y-velocity           k       omega     time/iter
   463  5.0043e-04  2.3921e-07  2.9705e-06  3.0259e-06  7.8077e-07  0:02:25 1537
   464  4.9645e-04  2.3838e-07  2.9598e-06  3.0208e-06  7.7790e-07  0:07:03 1536
   465  4.8979e-04  2.3768e-07  2.9493e-06  3.0157e-06  7.7555e-07  0:05:39 1535
   466  4.8727e-04  2.3685e-07  2.9386e-06  3.0107e-06  7.7290e-07  0:04:31 1534
   467  4.8023e-04  2.3612e-07  2.9280e-06  3.0057e-06  7.7040e-07  0:03:36 1533
   468  4.8033e-04  2.3543e-07  2.9177e-06  3.0006e-06  7.6801e-07  0:02:53 1532
   469  4.7547e-04  2.3465e-07  2.9071e-06  2.9957e-06  7.6563e-07  0:02:18 1531
   470  4.7524e-04  2.3401e-07  2.8969e-06  2.9907e-06  7.6310e-07  0:06:57 1530
   471  4.7489e-04  2.3324e-07  2.8865e-06  2.9857e-06  7.6073e-07  0:05:33 1529
   472  4.7758e-04  2.3260e-07  2.8763e-06  2.9808e-06  7.5838e-07  0:04:26 1528
   473  4.7636e-04  2.3186e-07  2.8660e-06  2.9759e-06  7.5580e-07  0:03:33 1527

  iter  continuity  x-velocity  y-velocity           k       omega     time/iter
   474  4.7564e-04  2.3122e-07  2.8559e-06  2.9710e-06  7.5363e-07  0:02:50 1526
   475  4.7146e-04  2.3049e-07  2.8456e-06  2.9662e-06  7.5105e-07  0:02:16 1525
   476  4.7237e-04  2.2986e-07  2.8356e-06  2.9613e-06  7.4892e-07  0:06:54 1524
   477  4.6897e-04  2.2914e-07  2.8255e-06  2.9565e-06  7.4646e-07  0:05:31 1523
   478  4.6624e-04  2.2849e-07  2.8154e-06  2.9517e-06  7.4425e-07  0:04:24 1522
   479  4.6747e-04  2.2787e-07  2.8056e-06  2.9469e-06  7.4197e-07  0:03:31 1521
   480  4.6474e-04  2.2718e-07  2.7955e-06  2.9421e-06  7.3951e-07  0:02:49 1520
   481  4.6080e-04  2.2658e-07  2.7858e-06  2.9374e-06  7.3699e-07  0:02:15 1519
   482  4.5564e-04  2.2591e-07  2.7759e-06  2.9327e-06  7.3437e-07  0:06:52 1518
   483  4.4924e-04  2.2529e-07  2.7660e-06  2.9280e-06  7.3210e-07  0:05:29 1517
   484  4.4661e-04  2.2470e-07  2.7564e-06  2.9233e-06  7.2958e-07  0:04:23 1516

  iter  continuity  x-velocity  y-velocity           k       omega     time/iter
   485  4.4419e-04  2.2406e-07  2.7466e-06  2.9186e-06  7.2754e-07  0:03:30 1515
   486  4.4099e-04  2.2349e-07  2.7371e-06  2.9140e-06  7.2515e-07  0:02:48 1514
   487  4.3877e-04  2.2285e-07  2.7274e-06  2.9094e-06  7.2295e-07  0:02:14 1513
   488  4.3438e-04  2.2229e-07  2.7179e-06  2.9047e-06  7.2041e-07  0:06:50 1512
   489  4.3419e-04  2.2167e-07  2.7083e-06  2.9002e-06  7.1826e-07  0:05:28 1511
   490  4.3065e-04  2.2111e-07  2.6989e-06  2.8956e-06  7.1550e-07  0:04:22 1510
   491  4.2972e-04  2.2048e-07  2.6894e-06  2.8910e-06  7.1332e-07  0:03:29 1509
   492  4.2594e-04  2.1993e-07  2.6801e-06  2.8865e-06  7.1051e-07  0:02:47 1508
   493  4.2709e-04  2.1933e-07  2.6706e-06  2.8820e-06  7.0850e-07  0:02:14 1507
   494  4.2174e-04  2.1877e-07  2.6612e-06  2.8775e-06  7.0525e-07  0:06:48 1506
   495  4.2126e-04  2.1822e-07  2.6521e-06  2.8730e-06  7.0288e-07  0:05:26 1505

  iter  continuity  x-velocity  y-velocity           k       omega     time/iter
   496  4.2086e-04  2.1765e-07  2.6429e-06  2.8686e-06  6.9947e-07  0:04:21 1504
   497  4.2287e-04  2.1708e-07  2.6335e-06  2.8641e-06  6.9730e-07  0:03:29 1503
   498  4.1600e-04  2.1655e-07  2.6245e-06  2.8597e-06  6.9368e-07  0:02:47 1502
   499  4.1059e-04  2.1598e-07  2.6153e-06  2.8553e-06  6.9150e-07  0:02:13 1501
   500  4.0648e-04  2.1546e-07  2.6064e-06  2.8509e-06  6.8825e-07  0:06:47 1500
   501  4.0294e-04  2.1490e-07  2.5972e-06  2.8465e-06  6.8630e-07  0:05:25 1499
   502  3.9757e-04  2.1437e-07  2.5882e-06  2.8422e-06  6.8348e-07  0:04:20 1498
   503  3.9601e-04  2.1385e-07  2.5793e-06  2.8378e-06  6.8163e-07  0:03:28 1497
   504  3.9242e-04  2.1330e-07  2.5703e-06  2.8335e-06  6.7905e-07  0:02:46 1496
   505  3.8857e-04  2.1279e-07  2.5616e-06  2.8292e-06  6.7724e-07  0:07:12 1495
   506  3.8441e-04  2.1225e-07  2.5526e-06  2.8249e-06  6.7489e-07  0:05:45 1494

  iter  continuity  x-velocity  y-velocity           k       omega     time/iter
   507  3.8193e-04  2.1175e-07  2.5440e-06  2.8207e-06  6.7302e-07  0:04:36 1493
   508  3.8005e-04  2.1123e-07  2.5351e-06  2.8164e-06  6.7067e-07  0:03:41 1492
   509  3.7548e-04  2.1072e-07  2.5263e-06  2.8122e-06  6.6878e-07  0:02:56 1491
   510  3.7469e-04  2.1022e-07  2.5178e-06  2.8080e-06  6.6646e-07  0:02:21 1490
   511  3.7408e-04  2.0971e-07  2.5090e-06  2.8038e-06  6.6475e-07  0:06:51 1489
   512  3.7195e-04  2.0922e-07  2.5006e-06  2.7996e-06  6.6237e-07  0:05:28 1488
   513  3.7333e-04  2.0872e-07  2.4919e-06  2.7954e-06  6.6057e-07  0:04:22 1487
   514  3.6923e-04  2.0824e-07  2.4835e-06  2.7913e-06  6.5836e-07  0:03:30 1486
   515  3.6791e-04  2.0776e-07  2.4749e-06  2.7871e-06  6.5672e-07  0:02:48 1485
   516  3.6406e-04  2.0728e-07  2.4664e-06  2.7830e-06  6.5456e-07  0:02:14 1484
   517  3.6351e-04  2.0680e-07  2.4581e-06  2.7789e-06  6.5316e-07  0:06:44 1483

  iter  continuity  x-velocity  y-velocity           k       omega     time/iter
   518  3.6384e-04  2.0632e-07  2.4496e-06  2.7748e-06  6.5115e-07  0:05:23 1482
   519  3.6190e-04  2.0585e-07  2.4414e-06  2.7708e-06  6.4971e-07  0:04:18 1481
   520  3.6336e-04  2.0538e-07  2.4330e-06  2.7667e-06  6.4746e-07  0:03:26 1480
   521  3.6170e-04  2.0492e-07  2.4249e-06  2.7627e-06  6.4574e-07  0:02:45 1479
   522  3.6246e-04  2.0446e-07  2.4165e-06  2.7587e-06  6.4369e-07  0:02:12 1478
   523  3.5955e-04  2.0400e-07  2.4083e-06  2.7547e-06  6.4195e-07  0:06:41 1477
   524  3.5882e-04  2.0355e-07  2.4003e-06  2.7507e-06  6.4001e-07  0:05:20 1476
   525  3.5734e-04  2.0310e-07  2.3920e-06  2.7467e-06  6.3840e-07  0:04:16 1475
   526  3.5475e-04  2.0265e-07  2.3841e-06  2.7427e-06  6.3688e-07  0:03:25 1474
   527  3.5174e-04  2.0219e-07  2.3759e-06  2.7388e-06  6.3517e-07  0:02:44 1473
   528  3.4589e-04  2.0176e-07  2.3679e-06  2.7349e-06  6.3367e-07  0:02:11 1472

  iter  continuity  x-velocity  y-velocity           k       omega     time/iter
   529  3.4332e-04  2.0132e-07  2.3600e-06  2.7309e-06  6.3211e-07  0:06:39 1471
   530  3.4060e-04  2.0087e-07  2.3520e-06  2.7271e-06  6.3056e-07  0:05:19 1470
   531  3.3639e-04  2.0045e-07  2.3441e-06  2.7232e-06  6.2879e-07  0:04:15 1469
   532  3.3686e-04  2.0001e-07  2.3363e-06  2.7193e-06  6.2713e-07  0:03:24 1468
   533  3.3680e-04  1.9959e-07  2.3284e-06  2.7155e-06  6.2565e-07  0:02:43 1467
   534  3.3702e-04  1.9916e-07  2.3207e-06  2.7116e-06  6.2426e-07  0:02:10 1466
   535  3.3797e-04  1.9875e-07  2.3128e-06  2.7078e-06  6.2262e-07  0:06:37 1465
   536  3.3675e-04  1.9833e-07  2.3052e-06  2.7040e-06  6.2105e-07  0:05:17 1464
   537  3.3747e-04  1.9791e-07  2.2974e-06  2.7002e-06  6.1939e-07  0:04:14 1463
   538  3.3560e-04  1.9751e-07  2.2897e-06  2.6964e-06  6.1749e-07  0:03:23 1462
   539  3.3447e-04  1.9709e-07  2.2822e-06  2.6927e-06  6.1563e-07  0:02:42 1461

  iter  continuity  x-velocity  y-velocity           k       omega     time/iter
   540  3.3183e-04  1.9668e-07  2.2744e-06  2.6889e-06  6.1407e-07  0:02:10 1460
   541  3.2818e-04  1.9628e-07  2.2669e-06  2.6852e-06  6.1213e-07  0:01:44 1459
   542  3.2798e-04  1.9587e-07  2.2594e-06  2.6814e-06  6.1046e-07  0:06:14 1458
   543  3.2621e-04  1.9548e-07  2.2518e-06  2.6777e-06  6.0859e-07  0:04:59 1457
   544  3.2360e-04  1.9509e-07  2.2443e-06  2.6740e-06  6.0690e-07  0:03:59 1456
   545  3.2371e-04  1.9468e-07  2.2370e-06  2.6704e-06  6.0509e-07  0:03:11 1455
   546  3.2233e-04  1.9429e-07  2.2295e-06  2.6667e-06  6.0328e-07  0:02:33 1454
   547  3.2108e-04  1.9390e-07  2.2221e-06  2.6630e-06  6.0176e-07  0:02:02 1453
   548  3.2086e-04  1.9351e-07  2.2148e-06  2.6594e-06  6.0010e-07  0:06:28 1452
   549  3.2184e-04  1.9311e-07  2.2076e-06  2.6558e-06  5.9837e-07  0:05:10 1451
   550  3.2130e-04  1.9274e-07  2.2002e-06  2.6522e-06  5.9653e-07  0:04:08 1450

  iter  continuity  x-velocity  y-velocity           k       omega     time/iter
   551  3.1886e-04  1.9235e-07  2.1930e-06  2.6486e-06  5.9474e-07  0:03:18 1449
   552  3.1978e-04  1.9196e-07  2.1859e-06  2.6450e-06  5.9301e-07  0:07:28 1448
   553  3.1939e-04  1.9160e-07  2.1786e-06  2.6414e-06  5.9140e-07  0:05:58 1447
   554  3.2028e-04  1.9121e-07  2.1716e-06  2.6379e-06  5.8995e-07  0:04:46 1446
   555  3.2055e-04  1.9085e-07  2.1644e-06  2.6343e-06  5.8840e-07  0:03:49 1445
   556  3.1778e-04  1.9048e-07  2.1572e-06  2.6308e-06  5.8723e-07  0:03:03 1444
   557  3.1846e-04  1.9009e-07  2.1503e-06  2.6273e-06  5.8541e-07  0:02:26 1443
   558  3.1565e-04  1.8973e-07  2.1432e-06  2.6238e-06  5.8429e-07  0:06:45 1442
   559  3.1468e-04  1.8935e-07  2.1363e-06  2.6203e-06  5.8276e-07  0:05:24 1441
   560  3.1206e-04  1.8901e-07  2.1292e-06  2.6168e-06  5.8157e-07  0:04:19 1440
   561  3.1053e-04  1.8862e-07  2.1224e-06  2.6134e-06  5.7980e-07  0:03:27 1439

  iter  continuity  x-velocity  y-velocity           k       omega     time/iter
   562  3.0882e-04  1.8828e-07  2.1154e-06  2.6099e-06  5.7865e-07  0:02:46 1438
   563  3.0795e-04  1.8790e-07  2.1086e-06  2.6065e-06  5.7722e-07  0:02:12 1437
   564  3.0569e-04  1.8757e-07  2.1017e-06  2.6030e-06  5.7568e-07  0:01:46 1436
   565  3.0367e-04  1.8719e-07  2.0949e-06  2.5996e-06  5.7360e-07  0:06:12 1435
   566  3.0006e-04  1.8686e-07  2.0880e-06  2.5962e-06  5.7228e-07  0:04:57 1434
   567  2.9715e-04  1.8648e-07  2.0814e-06  2.5928e-06  5.7036e-07  0:03:57 1433
   568  2.9356e-04  1.8616e-07  2.0746e-06  2.5895e-06  5.6888e-07  0:03:10 1432
   569  2.9143e-04  1.8578e-07  2.0680e-06  2.5861e-06  5.6709e-07  0:02:32 1431
   570  2.8944e-04  1.8545e-07  2.0612e-06  2.5828e-06  5.6590e-07  0:02:01 1430
   571  2.8598e-04  1.8511e-07  2.0545e-06  2.5794e-06  5.6443e-07  0:06:23 1429
   572  2.8552e-04  1.8475e-07  2.0480e-06  2.5761e-06  5.6332e-07  0:05:06 1428

  iter  continuity  x-velocity  y-velocity           k       omega     time/iter
   573  2.8187e-04  1.8441e-07  2.0413e-06  2.5728e-06  5.6195e-07  0:04:05 1427
   574  2.7916e-04  1.8408e-07  2.0347e-06  2.5695e-06  5.6069e-07  0:03:16 1426
   575  2.7734e-04  1.8374e-07  2.0282e-06  2.5662e-06  5.5932e-07  0:02:36 1425
   576  2.7575e-04  1.8341e-07  2.0217e-06  2.5629e-06  5.5795e-07  0:02:05 1424
   577  2.7361e-04  1.8306e-07  2.0152e-06  2.5597e-06  5.5686e-07  0:06:25 1423
   578  2.7335e-04  1.8270e-07  2.0089e-06  2.5564e-06  5.5577e-07  0:05:07 1422
   579  2.7325e-04  1.8241e-07  2.0024e-06  2.5532e-06  5.5498e-07  0:04:06 1421
   580  2.7006e-04  1.8207e-07  1.9960e-06  2.5499e-06  5.5345e-07  0:03:16 1420
   581  2.6957e-04  1.8175e-07  1.9896e-06  2.5467e-06  5.5207e-07  0:02:37 1419
   582  2.6904e-04  1.8139e-07  1.9834e-06  2.5435e-06  5.5063e-07  0:02:06 1418
   583  2.6996e-04  1.8109e-07  1.9770e-06  2.5403e-06  5.4936e-07  0:06:24 1417

  iter  continuity  x-velocity  y-velocity           k       omega     time/iter
   584  2.6920e-04  1.8077e-07  1.9707e-06  2.5371e-06  5.4697e-07  0:05:07 1416
   585  2.7125e-04  1.8042e-07  1.9645e-06  2.5340e-06  5.4569e-07  0:04:05 1415
   586  2.7230e-04  1.8013e-07  1.9582e-06  2.5308e-06  5.4358e-07  0:03:16 1414
   587  2.7089e-04  1.7981e-07  1.9520e-06  2.5277e-06  5.4248e-07  0:02:37 1413
   588  2.7211e-04  1.7946e-07  1.9459e-06  2.5245e-06  5.4053e-07  0:02:05 1412
   589  2.7251e-04  1.7918e-07  1.9397e-06  2.5214e-06  5.3890e-07  0:06:22 1411
   590  2.7072e-04  1.7884e-07  1.9337e-06  2.5183e-06  5.3701e-07  0:05:06 1410
   591  2.7048e-04  1.7856e-07  1.9275e-06  2.5152e-06  5.3545e-07  0:04:04 1409
   592  2.6742e-04  1.7824e-07  1.9214e-06  2.5121e-06  5.3361e-07  0:03:15 1408
   593  2.6730e-04  1.7790e-07  1.9154e-06  2.5090e-06  5.3213e-07  0:02:36 1407
   594  2.6648e-04  1.7762e-07  1.9093e-06  2.5060e-06  5.3074e-07  0:06:46 1406

  iter  continuity  x-velocity  y-velocity           k       omega     time/iter
   595  2.6505e-04  1.7730e-07  1.9033e-06  2.5029e-06  5.2926e-07  0:05:25 1405
   596  2.6593e-04  1.7697e-07  1.8975e-06  2.4999e-06  5.2799e-07  0:04:20 1404
   597  2.6570e-04  1.7670e-07  1.8914e-06  2.4968e-06  5.2641e-07  0:03:27 1403
   598  2.6546e-04  1.7636e-07  1.8856e-06  2.4938e-06  5.2525e-07  0:02:46 1402
   599  2.6426e-04  1.7609e-07  1.8797e-06  2.4908e-06  5.2425e-07  0:02:13 1401
   600  2.6108e-04  1.7579e-07  1.8738e-06  2.4878e-06  5.2375e-07  0:06:26 1400
   601  2.5995e-04  1.7546e-07  1.8680e-06  2.4848e-06  5.2257e-07  0:05:09 1399
   602  2.5811e-04  1.7518e-07  1.8621e-06  2.4818e-06  5.2142e-07  0:04:07 1398
   603  2.5597e-04  1.7485e-07  1.8564e-06  2.4788e-06  5.1985e-07  0:03:17 1397
   604  2.5446e-04  1.7459e-07  1.8506e-06  2.4759e-06  5.1897e-07  0:02:38 1396
   605  2.5330e-04  1.7429e-07  1.8448e-06  2.4729e-06  5.1718e-07  0:02:06 1395

  iter  continuity  x-velocity  y-velocity           k       omega     time/iter
   606  2.5236e-04  1.7397e-07  1.8392e-06  2.4700e-06  5.1583e-07  0:06:20 1394
   607  2.5231e-04  1.7371e-07  1.8334e-06  2.4671e-06  5.1413e-07  0:05:03 1393
   608  2.5006e-04  1.7338e-07  1.8278e-06  2.4641e-06  5.1276e-07  0:04:03 1392
   609  2.4957e-04  1.7312e-07  1.8221e-06  2.4612e-06  5.1139e-07  0:03:14 1391
   610  2.4631e-04  1.7284e-07  1.8164e-06  2.4583e-06  5.1040e-07  0:02:35 1390
   611  2.4600e-04  1.7252e-07  1.8109e-06  2.4554e-06  5.0872e-07  0:02:04 1389
   612  2.4385e-04  1.7226e-07  1.8053e-06  2.4526e-06  5.0762e-07  0:06:17 1388
   613  2.4302e-04  1.7194e-07  1.7998e-06  2.4497e-06  5.0636e-07  0:05:01 1387
   614  2.4117e-04  1.7170e-07  1.7942e-06  2.4468e-06  5.0508e-07  0:04:01 1386
   615  2.4016e-04  1.7142e-07  1.7887e-06  2.4440e-06  5.0385e-07  0:03:12 1385
   616  2.3917e-04  1.7110e-07  1.7833e-06  2.4412e-06  5.0250e-07  0:02:34 1384

  iter  continuity  x-velocity  y-velocity           k       omega     time/iter
   617  2.3946e-04  1.7086e-07  1.7778e-06  2.4383e-06  5.0122e-07  0:02:03 1383
   618  2.3818e-04  1.7054e-07  1.7724e-06  2.4355e-06  5.0002e-07  0:06:15 1382
   619  2.3895e-04  1.7030e-07  1.7669e-06  2.4327e-06  4.9927e-07  0:05:00 1381
   620  2.3820e-04  1.6999e-07  1.7616e-06  2.4299e-06  4.9849e-07  0:03:59 1380
   621  2.3910e-04  1.6976e-07  1.7562e-06  2.4271e-06  4.9759e-07  0:03:11 1379
   622  2.3832e-04  1.6945e-07  1.7509e-06  2.4243e-06  4.9627e-07  0:02:33 1378
   623  2.4015e-04  1.6921e-07  1.7455e-06  2.4216e-06  4.9527e-07  0:02:02 1377
   624  2.3976e-04  1.6890e-07  1.7403e-06  2.4188e-06  4.9438e-07  0:06:13 1376
   625  2.4024e-04  1.6867e-07  1.7349e-06  2.4161e-06  4.9290e-07  0:04:58 1375
   626  2.3858e-04  1.6839e-07  1.7297e-06  2.4133e-06  4.9171e-07  0:03:58 1374
   627  2.4115e-04  1.6809e-07  1.7245e-06  2.4106e-06  4.9020e-07  0:03:11 1373

  iter  continuity  x-velocity  y-velocity           k       omega     time/iter
   628  2.3945e-04  1.6785e-07  1.7192e-06  2.4079e-06  4.8914e-07  0:02:32 1372
   629  2.4046e-04  1.6755e-07  1.7141e-06  2.4052e-06  4.8791e-07  0:02:02 1371
   630  2.3921e-04  1.6732e-07  1.7089e-06  2.4025e-06  4.8727e-07  0:06:11 1370
   631  2.3933e-04  1.6702e-07  1.7038e-06  2.3998e-06  4.8590e-07  0:04:57 1369
   632  2.3773e-04  1.6680e-07  1.6986e-06  2.3971e-06  4.8520e-07  0:03:57 1368
   633  2.3780e-04  1.6649e-07  1.6936e-06  2.3944e-06  4.8393e-07  0:03:10 1367
   634  2.3619e-04  1.6626e-07  1.6884e-06  2.3918e-06  4.8304e-07  0:02:32 1366
   635  2.3621e-04  1.6597e-07  1.6835e-06  2.3891e-06  4.8152e-07  0:02:01 1365
   636  2.3475e-04  1.6575e-07  1.6783e-06  2.3865e-06  4.8075e-07  0:06:10 1364
   637  2.3302e-04  1.6548e-07  1.6733e-06  2.3838e-06  4.7941e-07  0:04:56 1363
   638  2.3360e-04  1.6519e-07  1.6684e-06  2.3812e-06  4.7920e-07  0:03:56 1362

  iter  continuity  x-velocity  y-velocity           k       omega     time/iter
   639  2.3148e-04  1.6497e-07  1.6633e-06  2.3786e-06  4.7826e-07  0:03:09 1361
   640  2.3090e-04  1.6467e-07  1.6585e-06  2.3760e-06  4.7769e-07  0:02:31 1360
   641  2.2946e-04  1.6445e-07  1.6535e-06  2.3734e-06  4.7620e-07  0:06:33 1359
   642  2.2917e-04  1.6416e-07  1.6486e-06  2.3708e-06  4.7576e-07  0:05:14 1358
   643  2.2775e-04  1.6395e-07  1.6437e-06  2.3682e-06  4.7468e-07  0:04:11 1357
   644  2.2614e-04  1.6369e-07  1.6388e-06  2.3656e-06  4.7364e-07  0:03:21 1356
   645  2.2770e-04  1.6341e-07  1.6340e-06  2.3631e-06  4.7258e-07  0:02:40 1355
   646  2.2620e-04  1.6320e-07  1.6291e-06  2.3605e-06  4.7151e-07  0:02:08 1354
   647  2.2525e-04  1.6290e-07  1.6243e-06  2.3580e-06  4.7049e-07  0:06:13 1353
   648  2.2342e-04  1.6269e-07  1.6195e-06  2.3554e-06  4.6941e-07  0:04:58 1352
   649  2.2247e-04  1.6245e-07  1.6147e-06  2.3529e-06  4.6849e-07  0:03:58 1351

  iter  continuity  x-velocity  y-velocity           k       omega     time/iter
   650  2.2457e-04  1.6217e-07  1.6100e-06  2.3504e-06  4.6747e-07  0:03:11 1350
   651  2.2541e-04  1.6191e-07  1.6053e-06  2.3479e-06  4.6653e-07  0:02:32 1349
   652  2.2593e-04  1.6173e-07  1.6005e-06  2.3454e-06  4.6551e-07  0:02:02 1348
   653  2.2505e-04  1.6144e-07  1.5959e-06  2.3429e-06  4.6466e-07  0:06:07 1347
   654  2.2328e-04  1.6123e-07  1.5911e-06  2.3404e-06  4.6343e-07  0:04:53 1346
   655  2.2201e-04  1.6095e-07  1.5866e-06  2.3379e-06  4.6269e-07  0:03:54 1345
   656  2.2053e-04  1.6074e-07  1.5819e-06  2.3354e-06  4.6183e-07  0:03:07 1344
   657  2.1989e-04  1.6046e-07  1.5773e-06  2.3330e-06  4.6147e-07  0:02:30 1343
   658  2.1847e-04  1.6027e-07  1.5726e-06  2.3305e-06  4.6047e-07  0:02:00 1342
   659  2.1804e-04  1.5999e-07  1.5681e-06  2.3281e-06  4.5969e-07  0:06:04 1341
   660  2.1649e-04  1.5979e-07  1.5635e-06  2.3257e-06  4.5851e-07  0:04:51 1340

  iter  continuity  x-velocity  y-velocity           k       omega     time/iter
   661  2.1638e-04  1.5951e-07  1.5590e-06  2.3232e-06  4.5804e-07  0:03:53 1339
   662  2.1448e-04  1.5932e-07  1.5544e-06  2.3208e-06  4.5653e-07  0:03:06 1338
   663  2.1356e-04  1.5904e-07  1.5500e-06  2.3184e-06  4.5599e-07  0:02:29 1337
   664  2.1258e-04  1.5884e-07  1.5454e-06  2.3160e-06  4.5446e-07  0:01:59 1336
   665  2.1230e-04  1.5856e-07  1.5410e-06  2.3136e-06  4.5391e-07  0:06:02 1335
   666  2.1093e-04  1.5838e-07  1.5365e-06  2.3112e-06  4.5234e-07  0:04:49 1334
   667  2.1048e-04  1.5810e-07  1.5322e-06  2.3089e-06  4.5184e-07  0:03:51 1333
   668  2.0897e-04  1.5791e-07  1.5277e-06  2.3065e-06  4.5053e-07  0:03:05 1332
   669  2.0824e-04  1.5763e-07  1.5233e-06  2.3041e-06  4.5022e-07  0:02:28 1331
   670  2.0710e-04  1.5745e-07  1.5189e-06  2.3018e-06  4.4892e-07  0:01:58 1330
   671  2.0695e-04  1.5717e-07  1.5146e-06  2.2994e-06  4.4852e-07  0:06:00 1329

  iter  continuity  x-velocity  y-velocity           k       omega     time/iter
   672  2.0622e-04  1.5698e-07  1.5102e-06  2.2971e-06  4.4742e-07  0:04:48 1328
   673  2.0564e-04  1.5671e-07  1.5059e-06  2.2948e-06  4.4675e-07  0:03:50 1327
   674  2.0447e-04  1.5653e-07  1.5016e-06  2.2924e-06  4.4611e-07  0:03:04 1326
   675  2.0401e-04  1.5626e-07  1.4973e-06  2.2901e-06  4.4572e-07  0:02:27 1325
   676  2.0380e-04  1.5607e-07  1.4930e-06  2.2878e-06  4.4469e-07  0:01:58 1324
   677  2.0307e-04  1.5580e-07  1.4888e-06  2.2855e-06  4.4411e-07  0:05:59 1323
   678  2.0230e-04  1.5563e-07  1.4845e-06  2.2832e-06  4.4318e-07  0:04:47 1322
   679  2.0186e-04  1.5535e-07  1.4804e-06  2.2810e-06  4.4254e-07  0:03:49 1321
   680  2.0123e-04  1.5517e-07  1.4761e-06  2.2787e-06  4.4120e-07  0:03:03 1320
   681  2.0129e-04  1.5490e-07  1.4720e-06  2.2764e-06  4.4063e-07  0:02:26 1319
   682  2.0036e-04  1.5473e-07  1.4678e-06  2.2742e-06  4.3938e-07  0:01:57 1318

  iter  continuity  x-velocity  y-velocity           k       omega     time/iter
   683  1.9924e-04  1.5446e-07  1.4637e-06  2.2719e-06  4.3868e-07  0:01:34 1317
   684  1.9870e-04  1.5428e-07  1.4595e-06  2.2697e-06  4.3748e-07  0:05:38 1316
   685  1.9729e-04  1.5401e-07  1.4554e-06  2.2675e-06  4.3715e-07  0:04:30 1315
   686  1.9602e-04  1.5384e-07  1.4513e-06  2.2652e-06  4.3594e-07  0:03:36 1314
   687  1.9639e-04  1.5357e-07  1.4472e-06  2.2630e-06  4.3563e-07  0:02:53 1313
   688  1.9702e-04  1.5340e-07  1.4431e-06  2.2608e-06  4.3430e-07  0:06:40 1312
   689  1.9698e-04  1.5314e-07  1.4391e-06  2.2586e-06  4.3416e-07  0:05:20 1311
   690  1.9601e-04  1.5297e-07  1.4350e-06  2.2564e-06  4.3289e-07  0:04:16 1310
   691  1.9641e-04  1.5271e-07  1.4311e-06  2.2542e-06  4.3283e-07  0:03:25 1309
   692  1.9606e-04  1.5253e-07  1.4270e-06  2.2520e-06  4.3148e-07  0:02:44 1308
   693  1.9609e-04  1.5227e-07  1.4231e-06  2.2499e-06  4.3151e-07  0:02:11 1307

  iter  continuity  x-velocity  y-velocity           k       omega     time/iter
   694  1.9474e-04  1.5210e-07  1.4190e-06  2.2477e-06  4.3036e-07  0:06:06 1306
   695  1.9418e-04  1.5184e-07  1.4151e-06  2.2455e-06  4.3044e-07  0:04:52 1305
   696  1.9301e-04  1.5162e-07  1.4112e-06  2.2434e-06  4.2940e-07  0:03:54 1304
   697  1.9219e-04  1.5147e-07  1.4072e-06  2.2412e-06  4.2937e-07  0:03:07 1303
   698  1.9089e-04  1.5120e-07  1.4034e-06  2.2391e-06  4.2839e-07  0:02:29 1302
   699  1.8942e-04  1.5103e-07  1.3994e-06  2.2370e-06  4.2831e-07  0:01:59 1301
   700  1.9006e-04  1.5077e-07  1.3956e-06  2.2348e-06  4.2714e-07  0:05:55 1300
   701  1.8949e-04  1.5060e-07  1.3917e-06  2.2327e-06  4.2683e-07  0:04:44 1299
   702  1.8976e-04  1.5035e-07  1.3879e-06  2.2306e-06  4.2562e-07  0:03:47 1298
   703  1.8898e-04  1.5018e-07  1.3840e-06  2.2285e-06  4.2560e-07  0:03:02 1297
   704  1.8883e-04  1.4993e-07  1.3803e-06  2.2264e-06  4.2429e-07  0:02:25 1296

  iter  continuity  x-velocity  y-velocity           k       omega     time/iter
   705  1.8902e-04  1.4972e-07  1.3765e-06  2.2243e-06  4.2432e-07  0:01:56 1295
   706  1.8907e-04  1.4957e-07  1.3726e-06  2.2223e-06  4.2296e-07  0:05:52 1294
   707  1.8887e-04  1.4931e-07  1.3689e-06  2.2202e-06  4.2303e-07  0:04:41 1293
   708  1.8902e-04  1.4909e-07  1.3652e-06  2.2181e-06  4.2171e-07  0:03:45 1292
   709  1.8872e-04  1.4895e-07  1.3614e-06  2.2161e-06  4.2168e-07  0:03:00 1291
   710  1.8848e-04  1.4869e-07  1.3577e-06  2.2140e-06  4.2032e-07  0:02:24 1290
   711  1.8761e-04  1.4847e-07  1.3540e-06  2.2120e-06  4.2031e-07  0:01:55 1289
   712  1.8631e-04  1.4833e-07  1.3503e-06  2.2099e-06  4.1893e-07  0:05:49 1288
   713  1.8455e-04  1.4807e-07  1.3466e-06  2.2079e-06  4.1887e-07  0:04:39 1287
   714  1.8303e-04  1.4785e-07  1.3430e-06  2.2059e-06  4.1753e-07  0:03:43 1286
   715  1.8206e-04  1.4772e-07  1.3393e-06  2.2039e-06  4.1745e-07  0:02:58 1285

  iter  continuity  x-velocity  y-velocity           k       omega     time/iter
   716  1.8018e-04  1.4746e-07  1.3357e-06  2.2019e-06  4.1620e-07  0:02:23 1284
   717  1.7745e-04  1.4728e-07  1.3320e-06  2.1999e-06  4.1603e-07  0:01:54 1283
   718  1.7657e-04  1.4704e-07  1.3285e-06  2.1978e-06  4.1486e-07  0:01:31 1282
   719  1.7446e-04  1.4688e-07  1.3248e-06  2.1959e-06  4.1454e-07  0:05:29 1281
   720  1.7363e-04  1.4664e-07  1.3213e-06  2.1939e-06  4.1342e-07  0:04:23 1280
   721  1.7174e-04  1.4648e-07  1.3177e-06  2.1919e-06  4.1308e-07  0:03:30 1279
   722  1.7085e-04  1.4624e-07  1.3142e-06  2.1899e-06  4.1215e-07  0:02:48 1278
   723  1.6915e-04  1.4608e-07  1.3106e-06  2.1880e-06  4.1167e-07  0:02:14 1277
   724  1.6851e-04  1.4584e-07  1.3071e-06  2.1860e-06  4.1075e-07  0:01:47 1276
   725  1.6712e-04  1.4568e-07  1.3036e-06  2.1841e-06  4.1024e-07  0:05:41 1275
   726  1.6662e-04  1.4544e-07  1.3001e-06  2.1821e-06  4.0941e-07  0:04:32 1274

  iter  continuity  x-velocity  y-velocity           k       omega     time/iter
   727  1.6527e-04  1.4528e-07  1.2966e-06  2.1802e-06  4.0882e-07  0:03:38 1273
   728  1.6473e-04  1.4504e-07  1.2932e-06  2.1782e-06  4.0799e-07  0:02:54 1272
   729  1.6341e-04  1.4488e-07  1.2897e-06  2.1763e-06  4.0736e-07  0:02:19 1271
   730  1.6291e-04  1.4464e-07  1.2863e-06  2.1744e-06  4.0660e-07  0:06:05 1270
   731  1.6150e-04  1.4450e-07  1.2828e-06  2.1725e-06  4.0601e-07  0:04:52 1269
   732  1.6119e-04  1.4425e-07  1.2795e-06  2.1706e-06  4.0532e-07  0:03:53 1268
   733  1.6020e-04  1.4410e-07  1.2760e-06  2.1687e-06  4.0468e-07  0:03:07 1267
   734  1.6049e-04  1.4386e-07  1.2727e-06  2.1668e-06  4.0396e-07  0:02:29 1266
   735  1.5960e-04  1.4371e-07  1.2693e-06  2.1649e-06  4.0339e-07  0:01:59 1265
[...]
  1818  3.1784e-05  6.0666e-08  2.6749e-07  1.4852e-06  2.4101e-07  0:00:50  182
  1819  3.1786e-05  6.0644e-08  2.6727e-07  1.4849e-06  2.4150e-07  0:00:40  181
  1820  3.1797e-05  6.0621e-08  2.6704e-07  1.4847e-06  2.4173e-07  0:00:31  180
  1821  3.1810e-05  6.0598e-08  2.6682e-07  1.4844e-06  2.4123e-07  0:00:25  179
  1822  3.1831e-05  6.0575e-08  2.6659e-07  1.4842e-06  2.4130e-07  0:00:20  178
  1823  3.1855e-05  6.0553e-08  2.6637e-07  1.4840e-06  2.4168e-07  0:00:16  177
  1824  3.1892e-05  6.0530e-08  2.6614e-07  1.4837e-06  2.4168e-07  0:00:48  176
  1825  3.1880e-05  6.0507e-08  2.6592e-07  1.4835e-06  2.4138e-07  0:00:38  175
  1826  3.1858e-05  6.0484e-08  2.6569e-07  1.4832e-06  2.4130e-07  0:00:30  174

  iter  continuity  x-velocity  y-velocity           k       omega     time/iter
  1827  3.1743e-05  6.0462e-08  2.6547e-07  1.4830e-06  2.4129e-07  0:00:24  173
  1828  3.1710e-05  6.0439e-08  2.6525e-07  1.4827e-06  2.4148e-07  0:00:19  172
  1829  3.1626e-05  6.0416e-08  2.6502e-07  1.4825e-06  2.4154e-07  0:00:15  171
  1830  3.1602e-05  6.0394e-08  2.6480e-07  1.4822e-06  2.4173e-07  0:00:46  170
  1831  3.1505e-05  6.0371e-08  2.6458e-07  1.4820e-06  2.4077e-07  0:00:37  169
  1832  3.1458e-05  6.0349e-08  2.6436e-07  1.4817e-06  2.4047e-07  0:00:29  168
  1833  3.1416e-05  6.0326e-08  2.6413e-07  1.4815e-06  2.4012e-07  0:00:23  167
  1834  3.1401e-05  6.0304e-08  2.6391e-07  1.4812e-06  2.3999e-07  0:00:18  166
  1835  3.1350e-05  6.0281e-08  2.6369e-07  1.4810e-06  2.3969e-07  0:00:48  165
  1836  3.1336e-05  6.0259e-08  2.6347e-07  1.4807e-06  2.3950e-07  0:00:38  164
  1837  3.1298e-05  6.0237e-08  2.6325e-07  1.4805e-06  2.3923e-07  0:00:30  163

  iter  continuity  x-velocity  y-velocity           k       omega     time/iter
  1838  3.1276e-05  6.0214e-08  2.6303e-07  1.4803e-06  2.3907e-07  0:00:24  162
  1839  3.1235e-05  6.0192e-08  2.6281e-07  1.4800e-06  2.3881e-07  0:00:19  161
  1840  3.1191e-05  6.0170e-08  2.6259e-07  1.4798e-06  2.3931e-07  0:00:15  160
  1841  3.1109e-05  6.0147e-08  2.6237e-07  1.4795e-06  2.3984e-07  0:00:44  159
  1842  3.1063e-05  6.0125e-08  2.6216e-07  1.4793e-06  2.3987e-07  0:00:35  158
  1843  3.1005e-05  6.0103e-08  2.6194e-07  1.4790e-06  2.3934e-07  0:00:28  157
  1844  3.0974e-05  6.0081e-08  2.6172e-07  1.4788e-06  2.3914e-07  0:00:22  156
  1845  3.0930e-05  6.0058e-08  2.6150e-07  1.4785e-06  2.3896e-07  0:00:49  155
  1846  3.0906e-05  6.0036e-08  2.6128e-07  1.4783e-06  2.3933e-07  0:00:39  154
  1847  3.0836e-05  6.0014e-08  2.6107e-07  1.4780e-06  2.3974e-07  0:00:31  153
  1848  3.0797e-05  5.9992e-08  2.6085e-07  1.4778e-06  2.3967e-07  0:00:24  152

  iter  continuity  x-velocity  y-velocity           k       omega     time/iter
  1849  3.0753e-05  5.9969e-08  2.6063e-07  1.4776e-06  2.3914e-07  0:00:19  151
  1850  3.0735e-05  5.9947e-08  2.6042e-07  1.4773e-06  2.3952e-07  0:00:15  150
  1851  3.0721e-05  5.9925e-08  2.6020e-07  1.4771e-06  2.3974e-07  0:00:42  149
  1852  3.0725e-05  5.9903e-08  2.5999e-07  1.4768e-06  2.3967e-07  0:00:33  148
  1853  3.0706e-05  5.9881e-08  2.5977e-07  1.4766e-06  2.3932e-07  0:00:27  147
  1854  3.0656e-05  5.9859e-08  2.5956e-07  1.4763e-06  2.3933e-07  0:00:21  146
  1855  3.0557e-05  5.9837e-08  2.5934e-07  1.4761e-06  2.3925e-07  0:00:17  145
  1856  3.0497e-05  5.9815e-08  2.5913e-07  1.4759e-06  2.3951e-07  0:00:13  144
  1857  3.0456e-05  5.9793e-08  2.5892e-07  1.4756e-06  2.3947e-07  0:00:39  143
  1858  3.0440e-05  5.9771e-08  2.5870e-07  1.4754e-06  2.3957e-07  0:00:31  142
  1859  3.0412e-05  5.9749e-08  2.5849e-07  1.4751e-06  2.3863e-07  0:00:25  141

  iter  continuity  x-velocity  y-velocity           k       omega     time/iter
  1860  3.0436e-05  5.9727e-08  2.5828e-07  1.4749e-06  2.3838e-07  0:00:20  140
  1861  3.0440e-05  5.9705e-08  2.5806e-07  1.4746e-06  2.3807e-07  0:00:16  139
  1862  3.0446e-05  5.9683e-08  2.5785e-07  1.4744e-06  2.3793e-07  0:00:12  138
  1863  3.0423e-05  5.9662e-08  2.5764e-07  1.4742e-06  2.3756e-07  0:00:37  137
  1864  3.0433e-05  5.9640e-08  2.5743e-07  1.4739e-06  2.3736e-07  0:00:30  136
  1865  3.0405e-05  5.9618e-08  2.5722e-07  1.4737e-06  2.3702e-07  0:00:23  135
  1866  3.0404e-05  5.9596e-08  2.5701e-07  1.4734e-06  2.3684e-07  0:00:19  134
  1867  3.0387e-05  5.9575e-08  2.5680e-07  1.4732e-06  2.3688e-07  0:00:15  133
  1868  3.0395e-05  5.9553e-08  2.5659e-07  1.4730e-06  2.3750e-07  0:00:38  132
  1869  3.0379e-05  5.9531e-08  2.5638e-07  1.4727e-06  2.3769e-07  0:00:30  131
  1870  3.0360e-05  5.9509e-08  2.5617e-07  1.4725e-06  2.3744e-07  0:00:24  130

  iter  continuity  x-velocity  y-velocity           k       omega     time/iter
  1871  3.0316e-05  5.9488e-08  2.5596e-07  1.4722e-06  2.3675e-07  0:00:19  129
  1872  3.0309e-05  5.9466e-08  2.5575e-07  1.4720e-06  2.3683e-07  0:00:15  128
  1873  3.0276e-05  5.9444e-08  2.5554e-07  1.4718e-06  2.3676e-07  0:00:12  127
  1874  3.0291e-05  5.9423e-08  2.5533e-07  1.4715e-06  2.3737e-07  0:00:35  126
  1875  3.0259e-05  5.9401e-08  2.5512e-07  1.4713e-06  2.3752e-07  0:00:28  125
  1876  3.0249e-05  5.9379e-08  2.5492e-07  1.4710e-06  2.3710e-07  0:00:22  124
  1877  3.0197e-05  5.9358e-08  2.5471e-07  1.4708e-06  2.3697e-07  0:00:17  123
  1878  3.0196e-05  5.9336e-08  2.5450e-07  1.4706e-06  2.3748e-07  0:00:14  122
  1879  3.0201e-05  5.9314e-08  2.5430e-07  1.4703e-06  2.3738e-07  0:00:11  121
  1880  3.0218e-05  5.9293e-08  2.5409e-07  1.4701e-06  2.3723e-07  0:00:33  120
  1881  3.0189e-05  5.9271e-08  2.5388e-07  1.4698e-06  2.3696e-07  0:00:26  119

  iter  continuity  x-velocity  y-velocity           k       omega     time/iter
  1882  3.0138e-05  5.9250e-08  2.5368e-07  1.4696e-06  2.3701e-07  0:00:21  118
  1883  3.0070e-05  5.9228e-08  2.5347e-07  1.4694e-06  2.3692e-07  0:00:16  117
  1884  3.0032e-05  5.9207e-08  2.5327e-07  1.4691e-06  2.3738e-07  0:00:36  116
  1885  2.9993e-05  5.9185e-08  2.5306e-07  1.4689e-06  2.3719e-07  0:00:29  115
  1886  2.9967e-05  5.9164e-08  2.5286e-07  1.4686e-06  2.3683e-07  0:00:23  114
  1887  2.9920e-05  5.9142e-08  2.5265e-07  1.4684e-06  2.3614e-07  0:00:18  113
  1888  2.9928e-05  5.9121e-08  2.5245e-07  1.4682e-06  2.3603e-07  0:00:14  112
  1889  2.9928e-05  5.9100e-08  2.5224e-07  1.4679e-06  2.3571e-07  0:00:11  111
  1890  2.9927e-05  5.9079e-08  2.5204e-07  1.4677e-06  2.3561e-07  0:00:31  110
  1891  2.9912e-05  5.9057e-08  2.5184e-07  1.4675e-06  2.3516e-07  0:00:25  109
  1892  2.9892e-05  5.9036e-08  2.5163e-07  1.4672e-06  2.3506e-07  0:00:19  108

  iter  continuity  x-velocity  y-velocity           k       omega     time/iter
  1893  2.9855e-05  5.9015e-08  2.5143e-07  1.4670e-06  2.3463e-07  0:00:15  107
  1894  2.9827e-05  5.8993e-08  2.5123e-07  1.4668e-06  2.3489e-07  0:00:12  106
  1895  2.9794e-05  5.8972e-08  2.5103e-07  1.4665e-06  2.3526e-07  0:00:10  105
  1896  2.9770e-05  5.8951e-08  2.5083e-07  1.4663e-06  2.3590e-07  0:00:28  104
  1897  2.9745e-05  5.8930e-08  2.5062e-07  1.4660e-06  2.3539e-07  0:00:23  103
  1898  2.9709e-05  5.8909e-08  2.5042e-07  1.4658e-06  2.3499e-07  0:00:18  102
  1899  2.9672e-05  5.8888e-08  2.5022e-07  1.4656e-06  2.3473e-07  0:00:14  101
  1900  2.9643e-05  5.8867e-08  2.5002e-07  1.4653e-06  2.3496e-07  0:00:11  100
  1901  2.9614e-05  5.8845e-08  2.4982e-07  1.4651e-06  2.3531e-07  0:00:29   99
  1902  2.9593e-05  5.8824e-08  2.4962e-07  1.4649e-06  2.3578e-07  0:00:23   98
  1903  2.9560e-05  5.8803e-08  2.4942e-07  1.4646e-06  2.3511e-07  0:00:18   97

  iter  continuity  x-velocity  y-velocity           k       omega     time/iter
  1904  2.9578e-05  5.8782e-08  2.4922e-07  1.4644e-06  2.3527e-07  0:00:14   96
  1905  2.9559e-05  5.8761e-08  2.4902e-07  1.4642e-06  2.3553e-07  0:00:11   95
  1906  2.9570e-05  5.8740e-08  2.4883e-07  1.4639e-06  2.3571e-07  0:00:09   94
  1907  2.9574e-05  5.8719e-08  2.4863e-07  1.4637e-06  2.3525e-07  0:00:26   93
  1908  2.9567e-05  5.8698e-08  2.4843e-07  1.4635e-06  2.3524e-07  0:00:20   92
  1909  2.9524e-05  5.8677e-08  2.4823e-07  1.4632e-06  2.3500e-07  0:00:16   91
  1910  2.9493e-05  5.8656e-08  2.4803e-07  1.4630e-06  2.3513e-07  0:00:13   90
  1911  2.9449e-05  5.8635e-08  2.4784e-07  1.4628e-06  2.3534e-07  0:00:10   89
  1912  2.9460e-05  5.8614e-08  2.4764e-07  1.4625e-06  2.3541e-07  0:00:08   88
  1913  2.9439e-05  5.8594e-08  2.4744e-07  1.4623e-06  2.3494e-07  0:00:24   87
  1914  2.9459e-05  5.8573e-08  2.4725e-07  1.4621e-06  2.3444e-07  0:00:19   86

  iter  continuity  x-velocity  y-velocity           k       omega     time/iter
  1915  2.9442e-05  5.8552e-08  2.4705e-07  1.4618e-06  2.3406e-07  0:00:15   85
  1916  2.9473e-05  5.8531e-08  2.4685e-07  1.4616e-06  2.3404e-07  0:00:12   84
  1917  2.9450e-05  5.8510e-08  2.4666e-07  1.4614e-06  2.3363e-07  0:00:09   83
  1918  2.9449e-05  5.8489e-08  2.4646e-07  1.4611e-06  2.3347e-07  0:00:07   82
  1919  2.9389e-05  5.8469e-08  2.4627e-07  1.4609e-06  2.3303e-07  0:00:22   81
  1920  2.9386e-05  5.8448e-08  2.4607e-07  1.4607e-06  2.3294e-07  0:00:17   80
  1921  2.9333e-05  5.8427e-08  2.4588e-07  1.4604e-06  2.3304e-07  0:00:14   79
  1922  2.9339e-05  5.8406e-08  2.4568e-07  1.4602e-06  2.3370e-07  0:00:11   78
  1923  2.9294e-05  5.8386e-08  2.4549e-07  1.4600e-06  2.3390e-07  0:00:09   77
  1924  2.9304e-05  5.8365e-08  2.4530e-07  1.4597e-06  2.3355e-07  0:00:07   76
  1925  2.9260e-05  5.8345e-08  2.4510e-07  1.4595e-06  2.3285e-07  0:00:20   75

  iter  continuity  x-velocity  y-velocity           k       omega     time/iter
  1926  2.9266e-05  5.8324e-08  2.4491e-07  1.4593e-06  2.3293e-07  0:00:16   74
  1927  2.9196e-05  5.8303e-08  2.4472e-07  1.4590e-06  2.3304e-07  0:00:13   73
  1928  2.9185e-05  5.8283e-08  2.4453e-07  1.4588e-06  2.3369e-07  0:00:10   72
  1929  2.9122e-05  5.8262e-08  2.4433e-07  1.4586e-06  2.3358e-07  0:00:22   71
  1930  2.9131e-05  5.8241e-08  2.4414e-07  1.4583e-06  2.3320e-07  0:00:17   70
  1931  2.9083e-05  5.8221e-08  2.4395e-07  1.4581e-06  2.3325e-07  0:00:14   69
  1932  2.9126e-05  5.8200e-08  2.4376e-07  1.4579e-06  2.3373e-07  0:00:11   68
  1933  2.9094e-05  5.8180e-08  2.4357e-07  1.4576e-06  2.3352e-07  0:00:09   67
  1934  2.9148e-05  5.8159e-08  2.4338e-07  1.4574e-06  2.3337e-07  0:00:07   66
  1935  2.9043e-05  5.8138e-08  2.4319e-07  1.4572e-06  2.3312e-07  0:00:18   65
  1936  2.9069e-05  5.8118e-08  2.4300e-07  1.4570e-06  2.3314e-07  0:00:14   64

  iter  continuity  x-velocity  y-velocity           k       omega     time/iter
  1937  2.8988e-05  5.8098e-08  2.4280e-07  1.4567e-06  2.3306e-07  0:00:11   63
  1938  2.8986e-05  5.8077e-08  2.4262e-07  1.4565e-06  2.3362e-07  0:00:09   62
  1939  2.8893e-05  5.8057e-08  2.4243e-07  1.4563e-06  2.3340e-07  0:00:07   61
  1940  2.8908e-05  5.8037e-08  2.4224e-07  1.4560e-06  2.3305e-07  0:00:06   60
  1941  2.8847e-05  5.8016e-08  2.4205e-07  1.4558e-06  2.3242e-07  0:00:16   59
  1942  2.8893e-05  5.7996e-08  2.4186e-07  1.4556e-06  2.3237e-07  0:00:13   58
  1943  2.8848e-05  5.7976e-08  2.4167e-07  1.4553e-06  2.3211e-07  0:00:10   57
  1944  2.8895e-05  5.7955e-08  2.4148e-07  1.4551e-06  2.3196e-07  0:00:08   56
  1945  2.8842e-05  5.7935e-08  2.4129e-07  1.4549e-06  2.3159e-07  0:00:06   55
  1946  2.8860e-05  5.7915e-08  2.4111e-07  1.4547e-06  2.3141e-07  0:00:16   54
  1947  2.8762e-05  5.7895e-08  2.4092e-07  1.4544e-06  2.3134e-07  0:00:12   53

  iter  continuity  x-velocity  y-velocity           k       omega     time/iter
  1948  2.8755e-05  5.7874e-08  2.4073e-07  1.4542e-06  2.3180e-07  0:00:10   52
  1949  2.8683e-05  5.7854e-08  2.4055e-07  1.4540e-06  2.3221e-07  0:00:08   51
  1950  2.8690e-05  5.7834e-08  2.4036e-07  1.4537e-06  2.3223e-07  0:00:06   50
  1951  2.8624e-05  5.7814e-08  2.4017e-07  1.4535e-06  2.3162e-07  0:00:05   49
  1952  2.8630e-05  5.7793e-08  2.3999e-07  1.4533e-06  2.3142e-07  0:00:13   48
  1953  2.8563e-05  5.7773e-08  2.3980e-07  1.4531e-06  2.3138e-07  0:00:10   47
  1954  2.8560e-05  5.7753e-08  2.3962e-07  1.4528e-06  2.3190e-07  0:00:08   46
  1955  2.8496e-05  5.7733e-08  2.3943e-07  1.4526e-06  2.3224e-07  0:00:06   45
  1956  2.8499e-05  5.7713e-08  2.3925e-07  1.4524e-06  2.3178e-07  0:00:05   44
  1957  2.8394e-05  5.7693e-08  2.3906e-07  1.4522e-06  2.3159e-07  0:00:04   43
  1958  2.8400e-05  5.7673e-08  2.3888e-07  1.4519e-06  2.3201e-07  0:00:11   42

  iter  continuity  x-velocity  y-velocity           k       omega     time/iter
  1959  2.8382e-05  5.7653e-08  2.3869e-07  1.4517e-06  2.3209e-07  0:00:09   41
  1960  2.8413e-05  5.7633e-08  2.3851e-07  1.4515e-06  2.3184e-07  0:00:07   40
  1961  2.8377e-05  5.7613e-08  2.3832e-07  1.4512e-06  2.3159e-07  0:00:05   39
  1962  2.8343e-05  5.7592e-08  2.3814e-07  1.4510e-06  2.3147e-07  0:00:04   38
  1963  2.8254e-05  5.7572e-08  2.3796e-07  1.4508e-06  2.3136e-07  0:00:03   37
  1964  2.8223e-05  5.7552e-08  2.3778e-07  1.4506e-06  2.3152e-07  0:00:10   36
  1965  2.8186e-05  5.7532e-08  2.3759e-07  1.4503e-06  2.3181e-07  0:00:08   35
  1966  2.8199e-05  5.7512e-08  2.3741e-07  1.4501e-06  2.3180e-07  0:00:06   34
  1967  2.8182e-05  5.7492e-08  2.3723e-07  1.4499e-06  2.3100e-07  0:00:05   33
  1968  2.8206e-05  5.7472e-08  2.3705e-07  1.4497e-06  2.3076e-07  0:00:04   32
  1969  2.8205e-05  5.7453e-08  2.3686e-07  1.4494e-06  2.3064e-07  0:00:03   31

  iter  continuity  x-velocity  y-velocity           k       omega     time/iter
  1970  2.8219e-05  5.7433e-08  2.3668e-07  1.4492e-06  2.3041e-07  0:00:08   30
  1971  2.8209e-05  5.7413e-08  2.3650e-07  1.4490e-06  2.3008e-07  0:00:06   29
  1972  2.8220e-05  5.7393e-08  2.3632e-07  1.4488e-06  2.2976e-07  0:00:05   28
  1973  2.8209e-05  5.7373e-08  2.3614e-07  1.4485e-06  2.2963e-07  0:00:04   27
  1974  2.8214e-05  5.7353e-08  2.3596e-07  1.4483e-06  2.2991e-07  0:00:08   26
  1975  2.8186e-05  5.7334e-08  2.3578e-07  1.4481e-06  2.3032e-07  0:00:06   25
  1976  2.8192e-05  5.7314e-08  2.3560e-07  1.4479e-06  2.3050e-07  0:00:05   24
  1977  2.8148e-05  5.7294e-08  2.3542e-07  1.4476e-06  2.2988e-07  0:00:04   23
  1978  2.8117e-05  5.7274e-08  2.3524e-07  1.4474e-06  2.2952e-07  0:00:03   22
  1979  2.8073e-05  5.7255e-08  2.3506e-07  1.4472e-06  2.2937e-07  0:00:02   21
  1980  2.8045e-05  5.7235e-08  2.3488e-07  1.4470e-06  2.2989e-07  0:00:06   20

  iter  continuity  x-velocity  y-velocity           k       omega     time/iter
  1981  2.8007e-05  5.7215e-08  2.3471e-07  1.4467e-06  2.3035e-07  0:00:04   19
  1982  2.7987e-05  5.7195e-08  2.3453e-07  1.4465e-06  2.3013e-07  0:00:03   18
  1983  2.7969e-05  5.7176e-08  2.3435e-07  1.4463e-06  2.2965e-07  0:00:02   17
  1984  2.7950e-05  5.7156e-08  2.3417e-07  1.4461e-06  2.3012e-07  0:00:02   16
  1985  2.7954e-05  5.7137e-08  2.3399e-07  1.4458e-06  2.3032e-07  0:00:01   15
  1986  2.7944e-05  5.7117e-08  2.3382e-07  1.4456e-06  2.3021e-07  0:00:04   14
  1987  2.7920e-05  5.7097e-08  2.3364e-07  1.4454e-06  2.2988e-07  0:00:03   13
  1988  2.7848e-05  5.7078e-08  2.3346e-07  1.4452e-06  2.2983e-07  0:00:02   12
  1989  2.7770e-05  5.7058e-08  2.3329e-07  1.4450e-06  2.2968e-07  0:00:02   11
  1990  2.7676e-05  5.7038e-08  2.3311e-07  1.4447e-06  2.2985e-07  0:00:01   10
  1991  2.7623e-05  5.7019e-08  2.3293e-07  1.4445e-06  2.3018e-07  0:00:03    9

  iter  continuity  x-velocity  y-velocity           k       omega     time/iter
  1992  2.7592e-05  5.6999e-08  2.3276e-07  1.4443e-06  2.3023e-07  0:00:02    8
  1993  2.7562e-05  5.6980e-08  2.3258e-07  1.4441e-06  2.2973e-07  0:00:01    7
  1994  2.7556e-05  5.6960e-08  2.3241e-07  1.4438e-06  2.2947e-07  0:00:01    6
  1995  2.7563e-05  5.6941e-08  2.3223e-07  1.4436e-06  2.2930e-07  0:00:01    5
  1996  2.7565e-05  5.6921e-08  2.3206e-07  1.4434e-06  2.2924e-07  0:00:01    4
  1997  2.7560e-05  5.6902e-08  2.3188e-07  1.4432e-06  2.2895e-07  0:00:01    3
  1998  2.7546e-05  5.6882e-08  2.3171e-07  1.4430e-06  2.2882e-07  0:00:00    2
  1999  2.7521e-05  5.6863e-08  2.3153e-07  1.4427e-06  2.2868e-07  0:00:00    1
  2000  2.7503e-05  5.6843e-08  2.3136e-07  1.4425e-06  2.2911e-07  0:00:00    0

> 
adjoint/                parallel/               server/
define/                 parametric-study/       solve/
display/                plot/                   surface/
exit                    preferences/            views/
file/                   print-license-usage
mesh/                   report/

> ;create rakes
surface/rake-surface cv_inlet -0.005 -0.065 -0.005 0.065 1000

> surface/rake-surface cv_outlet 1.005 -0.065 1.005 0.065 1000

> surface/rake-surface cv_top -0.005 0.065 1.005 0.065 1000

> surface/rake-surface cv_bottom -0.005 -0.065 1.005 -0.065 1000

> surface/point-surface free-stream -15 0

> 
adjoint/                parallel/               server/
define/                 parametric-study/       solve/
display/                plot/                   surface/
exit                    preferences/            views/
file/                   print-license-usage
mesh/                   report/

> ;export data
file/export/ascii NP_CVinlet_data cv_inlet () no pressure x-velocity y-velocity dx-velocity-dx dx-velocity-dy dy-velocity-dx dy-velocity-dy q no 
Writing "NP_CVinlet_data"...

Writing information to ascii file ...
Done.

ok


Overwrite confirmations (/file/set-batch-options ...)
are on -- will therefore ignore the following journal
Error: invalid command: ok


> file/export/ascii NP_CVoutlet_data cv_outlet () no pressure x-velocity y-velocity dx-velocity-dx dx-velocity-dy dy-velocity-dx dy-velocity-dy q no 
Writing "NP_CVoutlet_data"...

Writing information to ascii file ...
Done.

ok


Overwrite confirmations (/file/set-batch-options ...)
are on -- will therefore ignore the following journal
Error: invalid command: ok


> file/export/ascii NP_CVtop_data cv_top () no pressure x-velocity y-velocity dx-velocity-dx dx-velocity-dy dy-velocity-dx dy-velocity-dy q no 
Writing "NP_CVtop_data"...

Writing information to ascii file ...
Done.

ok


Overwrite confirmations (/file/set-batch-options ...)
are on -- will therefore ignore the following journal
Error: invalid command: ok


> file/export/ascii NP_CVbottom_data cv_bottom () no pressure x-velocity y-velocity dx-velocity-dx dx-velocity-dy dy-velocity-dx dy-velocity-dy q no 
Writing "NP_CVbottom_data"...

Writing information to ascii file ...
Done.

ok


Overwrite confirmations (/file/set-batch-options ...)
are on -- will therefore ignore the following journal
Error: invalid command: ok


> file/export/ascii air_properties free-stream () no density viscosity-lam q no 
Writing "air_properties"...

Writing information to ascii file ...
Done.

ok


Overwrite confirmations (/file/set-batch-options ...)
are on -- will therefore ignore the following journal
Error: invalid command: ok


> 
adjoint/                parallel/               server/
define/                 parametric-study/       solve/
display/                plot/                   surface/
exit                    preferences/            views/
file/                   print-license-usage
mesh/                   report/

> ;flag file to know when simulation is over
file/export/ascii flag_file free-stream () no pressure q no 
Writing "flag_file"...

Writing information to ascii file ...
Done.

ok


Overwrite confirmations (/file/set-batch-options ...)
are on -- will therefore ignore the following journal
Error: invalid command: ok


> /exit ok

Posting ANSYS Product Improvement Program performance data 
Done.
Auto-Transcript Stop Time:  18:34:58, 20 Jul 2025 GMT Summer Time 
Total Transcript Time: 6 Minute 57 Second.
