Auto-Transcript Start Time:  21:21:37, 20 Jul 2025 GMT Summer Time 
Current Directory: "C:\Users\V.Chepuri\OneDrive - Cranfield University\irp\pablo\re_200000\AOA_3"

              Welcome to ANSYS Fluent 2024 R2

              Copyright 1987-2024 ANSYS, Inc. All Rights Reserved.
              Unauthorized use, distribution or duplication is prohibited.
              This product is subject to U.S. laws governing export and re-export.
              For full Legal Notice, see documentation.

Build Time: May 13 2024 11:17:42 EST  Build Id: 10192  
 
Connected License Server List:	1055@cclic-2.central.cranfield.ac.uk

*********************************************
Info: Your license enables 4-way parallel execution.
For faster simulations, please start the application with the appropriate parallel options.
*********************************************


     --------------------------------------------------------------
     This is an academic version of ANSYS FLUENT. Usage of this product
     license is limited to the terms and conditions specified in your ANSYS
     license form, additional terms section.
     --------------------------------------------------------------
Host spawning Node 0 on machine "37PCL051" (win64).

-------------------------------------------------------------------------------
ID    Hostname  Core  O.S.         PID    Vendor                          
-------------------------------------------------------------------------------
n0    37PCL051  1/28  Windows-x64  15496  Intel(R) Core(TM) i7-14700      
host  37PCL051        Windows-x64  17520  Intel(R) Core(TM) i7-14700      

MPI Option Selected: intel
-------------------------------------------------------------------------------

Cleanup script file is C:\\Users\\V.Chepuri\\OneDrive - Cranfield University\\irp\\pablo\\re_200000\\AOA_3\\cleanup-fluent-37PCL051-17520.bat

Posting ANSYS Product Improvement Program startup data
Done.

> (cx-gui-do cx-activate-item "Key Behavioral Changes*PanelButtons*PushButton1(OK)")
(cx-gui-do cx-activate-item "MenuBar*ReadSubMenu*Case...")
(cx-gui-do cx-set-file-dialog-entries "Select File" '( "template_medium.cas.h5") "CFF Case Files (*.cas.h5 *.msh.h5 *.MSH.h5 )")
Fast-loading "C:\PROGRA~1\ANSYSI~1\v242\fluent\fluent24.2.0\\addons\afd\lib\hdfio.bin"
Done.

37PCL051 has other FLUENT parallel processes running.                       Process affinity not being set.

Reading from 37PCL051:"C:/Users/V.Chepuri/OneDrive - Cranfield University/irp/pablo/re_200000/AOA_3/template_medium.cas.h5" in NODE0 mode ...
  Reading mesh ...
      181070 cells,     4 cell zones ...
          36824 mixed cells,  zone id: 2
         108032 mixed cells,  zone id: 4
          27008 mixed cells,  zone id: 12
           9206 mixed cells,  zone id: 11
      309160 faces,    14 face zones ...
          65137 2D interior faces,  zone id: 3
         181145 2D interior faces,  zone id: 5
             42 2D velocity-inlet faces,  zone id: 6
             38 2D pressure-outlet faces,  zone id: 7
             40 2D velocity-inlet faces,  zone id: 8
            458 2D interior faces,  zone id: 9
            456 2D interior faces,  zone id: 10
            228 2D parent-face faces,  zone id: 19
            229 2D parent-face faces,  zone id: 18
             20 2D parent-face faces,  zone id: 17
             19 2D parent-face faces,  zone id: 16
             21 2D parent-face faces,  zone id: 15
          45157 2D parent-face faces,  zone id: 14
          16170 2D parent-face faces,  zone id: 13
      102461 nodes,     1 node zone  ...
  Done.


Building...
     mesh
     materials,
     interface,
     domains,
	mixture
     zones,
	outlet
	inlet
	interior-fluid
	interior-porous
	symmetry
	upper
	lower
	fluid
	porous
WARNING: "Smooth" contours can't be displayed when node-values is set to off. Changing the Coloring type to "Banded".
     parallel,
Done.
(cx-gui-do cx-activate-item "ToolBar*Mesh Display*fl_mesh_svg_graphics_toolbar")
(cx-gui-do cx-activate-item "Mesh Display*PanelButtons*PushButton1(OK)")
(cx-gui-do cx-activate-item "Mesh Display*PanelButtons*PushButton2(Cancel)")
(cx-use-window-id 51)
(dolly-camera 16.4818 15.2155 0)
(cx-use-window-id 51)
(dolly-camera 12.5432 -11.721 0)
(cx-use-window-id 51)
(dolly-camera 1.79189 3.13158 0)
(cx-use-window-id 51)
(handle-key "control ??")
(cx-use-window-id 51)
(dolly-camera -0.322932 0.1727 0)
(cx-use-window-id 51)
(handle-key "??")
(cx-use-window-id 51)
(handle-key "??")
(cx-gui-do cx-set-list-tree-selections "NavigationPane*Frame2*Table1*List_Tree2" (list "Setup|Boundary Conditions|Inlet|inlet (velocity-inlet, id=6)"))
(cx-gui-do cx-set-list-tree-selections "NavigationPane*Frame2*Table1*List_Tree2" (list "Setup|Boundary Conditions|Inlet|inlet (velocity-inlet, id=6)"))
(cx-gui-do cx-activate-item "NavigationPane*Frame2*Table1*List_Tree2")
(cx-gui-do cx-set-list-tree-selections "NavigationPane*Frame2*Table1*List_Tree2" (list "Setup|Boundary Conditions|Inlet|inlet (velocity-inlet, id=6)"))
(cx-gui-do cx-activate-tab-index "Velocity Inlet*Frame2*Frame2" 0)
(cx-gui-do cx-activate-tab-index "Velocity Inlet*Frame2*Frame2" 1)
(cx-gui-do cx-activate-tab-index "Velocity Inlet*Frame2*Frame2" 0)
(cx-gui-do cx-activate-tab-index "Velocity Inlet*Frame2*Frame2" 2)
(cx-gui-do cx-activate-tab-index "Velocity Inlet*Frame2*Frame2" 0)
(cx-gui-do cx-activate-tab-index "Velocity Inlet*Frame2*Frame2" 3)
(cx-gui-do cx-activate-tab-index "Velocity Inlet*Frame2*Frame2" 0)
(cx-gui-do cx-activate-tab-index "Velocity Inlet*Frame2*Frame2" 4)
(cx-gui-do cx-activate-tab-index "Velocity Inlet*Frame2*Frame2" 0)
(cx-gui-do cx-activate-tab-index "Velocity Inlet*Frame2*Frame2" 5)
(cx-gui-do cx-activate-tab-index "Velocity Inlet*Frame2*Frame2" 0)
(cx-gui-do cx-activate-tab-index "Velocity Inlet*Frame2*Frame2" 6)
(cx-gui-do cx-activate-tab-index "Velocity Inlet*Frame2*Frame2" 0)
(cx-gui-do cx-activate-tab-index "Velocity Inlet*Frame2*Frame2" 7)
(cx-gui-do cx-activate-tab-index "Velocity Inlet*Frame2*Frame2" 0)
(cx-gui-do cx-activate-tab-index "Velocity Inlet*Frame2*Frame2" 8)
(cx-gui-do cx-activate-tab-index "Velocity Inlet*Frame2*Frame2" 0)
(cx-gui-do cx-enable-apply-button "Velocity Inlet")
(cx-gui-do cx-set-expression-entry "Velocity Inlet*Frame2*Frame2*Frame1(Momentum)*Table1*Table17*ExpressionEntry1(X-Velocity)" '("0.99862953" . 0))
(cx-gui-do cx-set-expression-entry "Velocity Inlet*Frame2*Frame2*Frame1(Momentum)*Table1*Table18*ExpressionEntry1(Y-Velocity)" '("0.05233596" . 0))
(cx-gui-do cx-activate-item "Velocity Inlet*PanelButtons*PushButton1(OK)")
(cx-gui-do cx-activate-item "Velocity Inlet*PanelButtons*PushButton2(Cancel)")
(cx-gui-do cx-set-list-tree-selections "NavigationPane*Frame2*Table1*List_Tree2" (list "Setup|Boundary Conditions|Inlet|inlet (velocity-inlet, id=6)"))
(cx-gui-do cx-set-list-tree-selections "NavigationPane*Frame2*Table1*List_Tree2" (list "Setup|Boundary Conditions|Inlet|inlet (velocity-inlet, id=6)"))
(cx-gui-do cx-activate-item "NavigationPane*Frame2*Table1*List_Tree2")
(cx-gui-do cx-set-list-tree-selections "NavigationPane*Frame2*Table1*List_Tree2" (list "Setup|Boundary Conditions|Inlet|inlet (velocity-inlet, id=6)"))
(cx-gui-do cx-set-list-tree-selections "NavigationPane*Frame2*Table1*List_Tree2" (list "Setup|Boundary Conditions|Inlet|symmetry (velocity-inlet, id=8)"))
(cx-gui-do cx-set-list-tree-selections "NavigationPane*Frame2*Table1*List_Tree2" (list "Setup|Boundary Conditions|Inlet|symmetry (velocity-inlet, id=8)"))
(cx-gui-do cx-activate-item "NavigationPane*Frame2*Table1*List_Tree2")
(cx-gui-do cx-set-list-tree-selections "NavigationPane*Frame2*Table1*List_Tree2" (list "Setup|Boundary Conditions|Inlet|symmetry (velocity-inlet, id=8)"))
(cx-gui-do cx-activate-tab-index "Velocity Inlet*Frame2*Frame2" 0)
(cx-gui-do cx-activate-tab-index "Velocity Inlet*Frame2*Frame2" 1)
(cx-gui-do cx-activate-tab-index "Velocity Inlet*Frame2*Frame2" 0)
(cx-gui-do cx-activate-tab-index "Velocity Inlet*Frame2*Frame2" 2)
(cx-gui-do cx-activate-tab-index "Velocity Inlet*Frame2*Frame2" 0)
(cx-gui-do cx-activate-tab-index "Velocity Inlet*Frame2*Frame2" 3)
(cx-gui-do cx-activate-tab-index "Velocity Inlet*Frame2*Frame2" 0)
(cx-gui-do cx-activate-tab-index "Velocity Inlet*Frame2*Frame2" 4)
(cx-gui-do cx-activate-tab-index "Velocity Inlet*Frame2*Frame2" 0)
(cx-gui-do cx-activate-tab-index "Velocity Inlet*Frame2*Frame2" 5)
(cx-gui-do cx-activate-tab-index "Velocity Inlet*Frame2*Frame2" 0)
(cx-gui-do cx-activate-tab-index "Velocity Inlet*Frame2*Frame2" 6)
(cx-gui-do cx-activate-tab-index "Velocity Inlet*Frame2*Frame2" 0)
(cx-gui-do cx-activate-tab-index "Velocity Inlet*Frame2*Frame2" 7)
(cx-gui-do cx-activate-tab-index "Velocity Inlet*Frame2*Frame2" 0)
(cx-gui-do cx-activate-tab-index "Velocity Inlet*Frame2*Frame2" 8)
(cx-gui-do cx-activate-tab-index "Velocity Inlet*Frame2*Frame2" 0)
(cx-gui-do cx-set-expression-entry "Velocity Inlet*Frame2*Frame2*Frame1(Momentum)*Table1*Table17*ExpressionEntry1(X-Velocity)" '("0.99862953" . 0))
(cx-gui-do cx-enable-apply-button "Velocity Inlet")
(cx-gui-do cx-set-expression-entry "Velocity Inlet*Frame2*Frame2*Frame1(Momentum)*Table1*Table17*ExpressionEntry1(X-Velocity)" '("0.99862953" . 0))
(cx-gui-do cx-set-expression-entry "Velocity Inlet*Frame2*Frame2*Frame1(Momentum)*Table1*Table18*ExpressionEntry1(Y-Velocity)" '("0.05233596" . 0))
(cx-gui-do cx-set-expression-entry "Velocity Inlet*Frame2*Frame2*Frame1(Momentum)*Table1*Table18*ExpressionEntry1(Y-Velocity)" '("0.05233596" . 0))
(cx-gui-do cx-activate-item "Velocity Inlet*PanelButtons*PushButton1(OK)")
(cx-gui-do cx-activate-item "Velocity Inlet*PanelButtons*PushButton1(OK)")
(cx-gui-do cx-activate-item "Velocity Inlet*PanelButtons*PushButton2(Cancel)")
(cx-gui-do cx-activate-item "Velocity Inlet*PanelButtons*PushButton2(Cancel)")
(cx-gui-do cx-activate-item "MenuBar*WriteSubMenu*Case...")
(cx-gui-do cx-set-file-dialog-entries "Select File" '( "template_medium.cas.h5") "CFF Case Files (*.cas.h5 )")
(cx-gui-do cx-activate-item "Question*OK")

Writing to 37PCL051:"C:/Users/V.Chepuri/OneDrive - Cranfield University/irp/pablo/re_200000/AOA_3/template_medium.cas.h5" in NODE0 mode and compression level 1 ...
Grouping cells for Laplace smoothing ...
      181070 cells,     4 zones ...
      309160 faces,    14 zones ...
      102461 nodes,     1 zone  ...
  Done.
Done.
(cx-gui-do cx-set-list-tree-selections "NavigationPane*Frame2*Table1*List_Tree2" (list "Setup|Materials|Fluid|air"))
(cx-gui-do cx-set-list-tree-selections "NavigationPane*Frame2*Table1*List_Tree2" (list "Setup|Materials|Fluid|air"))
(cx-gui-do cx-activate-item "NavigationPane*Frame2*Table1*List_Tree2")
(cx-gui-do cx-set-list-tree-selections "NavigationPane*Frame2*Table1*List_Tree2" (list "Setup|Materials|Fluid|air"))
(cx-gui-do cx-activate-item "Create/Edit Materials*PanelButtons*PushButton1(Close)")
(cx-gui-do cx-activate-item "MenuBar*ReadSubMenu*Journal...")

Reading journal file C:/Users/V.Chepuri/OneDrive - Cranfield University/irp/pablo/re_200000/AOA_3/template.jou...

> ;change to correct dir

file/read-case template_medium.cas.h5 
37PCL051 has other FLUENT parallel processes running.                       Process affinity not being set.

       Clearing partially read grid.

Reading from 37PCL051:"C:\Users\V.Chepuri\OneDrive - Cranfield University\irp\pablo\re_200000\AOA_3\template_medium.cas.h5" in NODE0 mode ...
  Reading mesh ...
      181070 cells,     4 cell zones ...
          36824 mixed cells,  zone id: 2
         108032 mixed cells,  zone id: 4
          27008 mixed cells,  zone id: 12
           9206 mixed cells,  zone id: 11
      309160 faces,    14 face zones ...
          65137 2D interior faces,  zone id: 3
         181145 2D interior faces,  zone id: 5
             42 2D velocity-inlet faces,  zone id: 6
             38 2D pressure-outlet faces,  zone id: 7
             40 2D velocity-inlet faces,  zone id: 8
            458 2D interior faces,  zone id: 9
            456 2D interior faces,  zone id: 10
            228 2D parent-face faces,  zone id: 19
            229 2D parent-face faces,  zone id: 18
             20 2D parent-face faces,  zone id: 17
             19 2D parent-face faces,  zone id: 16
             21 2D parent-face faces,  zone id: 15
          45157 2D parent-face faces,  zone id: 14
          16170 2D parent-face faces,  zone id: 13
      102461 nodes,     1 node zone  ...
  Done.


Building...
     mesh
     materials,
     interface,
     domains,
	mixture
     zones,
	outlet
	inlet
	interior-fluid
	interior-porous
	symmetry
	upper
	lower
	fluid
	porous
WARNING: "Smooth" contours can't be displayed when node-values is set to off. Changing the Coloring type to "Banded".
     parallel,
Done.
OK


Overwrite confirmations (/file/set-batch-options ...)
are on -- will therefore ignore the following journal
Error: invalid command: OK


> 
adjoint/                parallel/               server/
define/                 parametric-study/       solve/
display/                plot/                   surface/
exit                    preferences/            views/
file/                   print-license-usage
mesh/                   report/

> ;modify permeability parameters
define/named-expressions/edit a definition " 0.0 " q q q

> define/named-expressions/edit b definition " 0.0 " q q q

> define/named-expressions/edit c definition " 0.0 " q q q

> define/named-expressions/edit d definition " 0.0 " q q q

> define/named-expressions/edit e1 definition " -5.0 " q q q

> define/named-expressions/edit a2 definition " 0.0 " q q q

> define/named-expressions/edit b2 definition " 0.0 " q q q

> define/named-expressions/edit c2 definition " 0.0 " q q q

> define/named-expressions/edit d2 definition " 0.0 " q q q

> define/named-expressions/edit e2 definition " -5.0 " q q q

> 
adjoint/                parallel/               server/
define/                 parametric-study/       solve/
display/                plot/                   surface/
exit                    preferences/            views/
file/                   print-license-usage
mesh/                   report/

> ;run simulation
solve/initialize/hyb-initialization 
Initialize using the hybrid initialization method.

Checking case topology... 
-This case has both inlets & outlets 
-Pressure information is not available at the boundaries.
 Case will be initialized with constant pressure

	iter		scalar-0

	1		1.000000e+00
	2		1.279132e-05
	3		9.746179e-07
	4		3.356496e-07
	5		6.067395e-08
	6		3.957494e-08
	7		3.330857e-08
	8		3.844067e-08
	9		4.019023e-08
	10		3.404766e-08

Hybrid initialization is done.


> solve/iterate 2000

  iter  continuity  x-velocity  y-velocity           k       omega     time/iter
     1  1.0000e+00  4.2909e-04  2.9918e-03  5.2455e-01  3.1130e-01  0:00:00 1999
     2  1.0000e+00  6.9892e-04  1.4590e-03  3.5755e-01  2.6685e-01  0:33:18 1998
     3  6.5345e-01  4.8775e-04  7.7446e-04  1.9047e-01  2.1262e-01  0:26:38 1997
     4  4.5450e-01  3.5268e-04  4.7029e-04  9.1736e-02  1.5698e-01  0:21:17 1996
     5  3.3295e-01  2.7419e-04  3.4530e-04  4.9619e-02  1.1026e-01  0:17:01 1995
     6  2.7051e-01  2.2049e-04  2.9309e-04  3.2580e-02  7.5700e-02  0:20:16 1994
     7  2.2289e-01  1.8299e-04  2.5215e-04  2.4390e-02  5.2875e-02  0:16:12 1993
     8  1.7523e-01  1.5872e-04  2.2140e-04  1.9543e-02  3.8613e-02  0:12:57 1992
     9  1.3360e-01  1.4108e-04  1.9360e-04  1.6188e-02  2.9437e-02  0:10:21 1991
    10  1.0180e-01  1.2688e-04  1.7535e-04  1.3739e-02  2.3333e-02  0:08:17 1990
    11  7.7099e-02  1.1598e-04  1.5972e-04  1.1903e-02  1.9093e-02  0:06:37 1989

  iter  continuity  x-velocity  y-velocity           k       omega     time/iter
    12  5.8473e-02  1.0752e-04  1.4814e-04  1.0494e-02  1.6038e-02  0:11:55 1988
    13  4.5864e-02  1.0020e-04  1.3820e-04  9.3087e-03  1.3579e-02  0:09:32 1987
    14  3.6812e-02  9.4179e-05  1.3006e-04  8.3703e-03  1.1708e-02  0:07:37 1986
    15  3.0592e-02  8.8691e-05  1.2248e-04  7.6046e-03  1.0247e-02  0:06:06 1985
    16  2.6206e-02  8.3815e-05  1.1586e-04  6.9613e-03  9.0809e-03  0:04:52 1984
    17  2.2935e-02  7.9521e-05  1.0979e-04  6.4041e-03  8.1332e-03  0:10:30 1983
    18  2.0467e-02  7.6003e-05  1.0419e-04  5.9140e-03  7.3496e-03  0:08:24 1982
    19  1.8490e-02  7.2382e-05  9.9042e-05  5.4861e-03  6.6926e-03  0:06:43 1981
    20  1.6936e-02  6.9488e-05  9.4122e-05  5.1101e-03  6.1343e-03  0:05:22 1980
    21  1.5517e-02  6.6556e-05  8.9583e-05  4.7798e-03  5.6552e-03  0:04:18 1979
    22  1.4501e-02  6.4222e-05  8.5203e-05  4.4851e-03  5.2395e-03  0:03:26 1978

  iter  continuity  x-velocity  y-velocity           k       omega     time/iter
    23  1.3498e-02  6.1755e-05  8.1180e-05  4.2253e-03  4.8762e-03  0:09:20 1977
    24  1.2822e-02  5.9824e-05  7.7253e-05  3.9936e-03  4.5562e-03  0:07:28 1976
    25  1.2059e-02  5.7643e-05  7.3643e-05  3.7831e-03  4.2724e-03  0:05:58 1975
    26  1.1508e-02  5.5906e-05  7.0093e-05  3.5932e-03  4.0189e-03  0:04:46 1974
    27  1.1003e-02  5.4258e-05  6.6745e-05  3.4204e-03  3.7916e-03  0:03:49 1973
    28  1.0537e-02  5.2709e-05  6.3574e-05  3.2634e-03  3.5861e-03  0:03:03 1972
    29  1.0147e-02  5.1306e-05  6.0563e-05  3.1198e-03  3.3998e-03  0:09:01 1971
    30  9.8738e-03  4.9993e-05  5.7687e-05  2.9871e-03  3.2307e-03  0:07:12 1970
    31  9.5159e-03  4.8772e-05  5.4962e-05  2.8654e-03  3.0765e-03  0:05:46 1969
    32  9.2175e-03  4.7609e-05  5.2381e-05  2.7524e-03  2.9355e-03  0:04:36 1968
    33  8.8792e-03  4.6596e-05  4.9878e-05  2.6478e-03  2.8062e-03  0:03:41 1967

  iter  continuity  x-velocity  y-velocity           k       omega     time/iter
    34  8.5791e-03  4.5668e-05  4.7490e-05  2.5500e-03  2.6871e-03  0:02:57 1966
    35  8.3800e-03  4.4794e-05  4.5238e-05  2.4581e-03  2.5772e-03  0:08:54 1965
    36  8.1662e-03  4.3990e-05  4.3087e-05  2.3724e-03  2.4755e-03  0:07:07 1964
    37  7.9983e-03  4.3263e-05  4.1042e-05  2.2930e-03  2.3814e-03  0:05:42 1963
    38  7.8492e-03  4.2615e-05  3.9108e-05  2.2190e-03  2.2936e-03  0:04:33 1962
    39  7.7528e-03  4.1934e-05  3.7293e-05  2.1498e-03  2.2118e-03  0:10:11 1961
    40  7.7253e-03  4.1379e-05  3.5559e-05  2.0863e-03  2.1354e-03  0:08:08 1960
    41  7.5703e-03  4.0797e-05  3.3918e-05  2.0275e-03  2.0641e-03  0:06:30 1959
    42  7.4289e-03  4.0251e-05  3.2365e-05  1.9729e-03  1.9972e-03  0:05:12 1958
    43  7.4229e-03  3.9702e-05  3.0929e-05  1.9210e-03  1.9344e-03  0:04:10 1957
    44  7.2683e-03  3.9276e-05  2.9509e-05  1.8729e-03  1.8752e-03  0:03:20 1956

  iter  continuity  x-velocity  y-velocity           k       omega     time/iter
    45  7.3225e-03  3.8804e-05  2.8215e-05  1.8278e-03  1.8196e-03  0:09:11 1955
    46  7.2254e-03  3.8440e-05  2.6945e-05  1.7855e-03  1.7670e-03  0:07:20 1954
    47  7.1585e-03  3.7995e-05  2.5800e-05  1.7458e-03  1.7172e-03  0:05:52 1953
    48  7.1093e-03  3.7622e-05  2.4707e-05  1.7084e-03  1.6700e-03  0:04:41 1952
    49  7.0387e-03  3.7272e-05  2.3654e-05  1.6731e-03  1.6250e-03  0:03:45 1951
    50  7.0160e-03  3.6939e-05  2.2646e-05  1.6402e-03  1.5823e-03  0:03:00 1950
    51  7.0311e-03  3.6624e-05  2.1703e-05  1.6084e-03  1.5418e-03  0:02:24 1949
    52  6.9669e-03  3.6317e-05  2.0821e-05  1.5784e-03  1.5029e-03  0:08:25 1948
    53  6.8645e-03  3.5950e-05  1.9975e-05  1.5504e-03  1.4659e-03  0:06:44 1947
    54  6.7285e-03  3.5594e-05  1.9187e-05  1.5236e-03  1.4307e-03  0:05:23 1946
    55  6.6675e-03  3.5261e-05  1.8439e-05  1.4977e-03  1.3968e-03  0:04:18 1945

  iter  continuity  x-velocity  y-velocity           k       omega     time/iter
    56  6.6517e-03  3.4939e-05  1.7741e-05  1.4728e-03  1.3644e-03  0:09:55 1944
    57  6.6300e-03  3.4596e-05  1.7086e-05  1.4496e-03  1.3332e-03  0:07:56 1943
    58  6.5667e-03  3.4262e-05  1.6466e-05  1.4272e-03  1.3034e-03  0:06:20 1942
    59  6.5790e-03  3.3943e-05  1.5883e-05  1.4055e-03  1.2748e-03  0:11:32 1941
    60  6.6208e-03  3.3624e-05  1.5338e-05  1.3846e-03  1.2473e-03  0:09:14 1940
    61  6.6452e-03  3.3301e-05  1.4819e-05  1.3642e-03  1.2208e-03  0:07:23 1939
    62  6.6255e-03  3.2966e-05  1.4335e-05  1.3449e-03  1.1953e-03  0:05:54 1938
    63  6.6102e-03  3.2642e-05  1.3865e-05  1.3264e-03  1.1707e-03  0:11:10 1937
    64  6.6118e-03  3.2350e-05  1.3424e-05  1.3083e-03  1.1470e-03  0:08:56 1936
    65  6.5807e-03  3.2035e-05  1.3018e-05  1.2906e-03  1.1241e-03  0:07:09 1935
    66  6.5676e-03  3.1718e-05  1.2634e-05  1.2733e-03  1.1020e-03  0:12:10 1934

  iter  continuity  x-velocity  y-velocity           k       omega     time/iter
    67  6.5715e-03  3.1414e-05  1.2274e-05  1.2570e-03  1.0806e-03  0:09:43 1933
    68  6.6060e-03  3.1125e-05  1.1945e-05  1.2411e-03  1.0600e-03  0:07:46 1932
    69  6.6246e-03  3.0840e-05  1.1633e-05  1.2255e-03  1.0401e-03  0:06:13 1931
    70  6.6129e-03  3.0544e-05  1.1338e-05  1.2106e-03  1.0209e-03  0:11:24 1930
    71  6.6182e-03  3.0292e-05  1.1067e-05  1.1956e-03  1.0023e-03  0:09:07 1929
    72  6.6535e-03  3.0055e-05  1.0833e-05  1.1814e-03  9.8434e-04  0:07:17 1928
    73  6.6670e-03  2.9787e-05  1.0611e-05  1.1677e-03  9.6693e-04  0:05:50 1927
    74  6.7158e-03  2.9549e-05  1.0392e-05  1.1543e-03  9.5007e-04  0:11:05 1926
    75  6.7277e-03  2.9295e-05  1.0194e-05  1.1415e-03  9.3386e-04  0:08:52 1925
    76  6.7290e-03  2.9067e-05  1.0013e-05  1.1288e-03  9.1809e-04  0:07:05 1924
    77  6.7205e-03  2.8866e-05  9.8470e-06  1.1162e-03  9.0287e-04  0:12:04 1923

  iter  continuity  x-velocity  y-velocity           k       omega     time/iter
    78  6.7636e-03  2.8650e-05  9.6829e-06  1.1042e-03  8.8824e-04  0:09:39 1922
    79  6.7995e-03  2.8437e-05  9.5297e-06  1.0924e-03  8.7411e-04  0:07:43 1921
    80  6.8183e-03  2.8211e-05  9.4032e-06  1.0812e-03  8.6037e-04  0:06:10 1920
    81  6.8012e-03  2.7990e-05  9.2801e-06  1.0701e-03  8.4695e-04  0:11:20 1919
    82  6.8157e-03  2.7794e-05  9.1599e-06  1.0591e-03  8.3395e-04  0:09:04 1918
    83  6.8684e-03  2.7639e-05  9.0545e-06  1.0485e-03  8.2147e-04  0:13:38 1917
    84  6.9070e-03  2.7476e-05  8.9611e-06  1.0380e-03  8.0939e-04  0:10:54 1916
    85  6.9421e-03  2.7280e-05  8.8706e-06  1.0277e-03  7.9774e-04  0:08:43 1915
    86  6.9528e-03  2.7085e-05  8.7767e-06  1.0177e-03  7.8634e-04  0:06:58 1914
    87  6.9727e-03  2.6916e-05  8.6977e-06  1.0079e-03  7.7529e-04  0:11:57 1913
    88  6.9705e-03  2.6750e-05  8.6206e-06  9.9791e-04  7.6440e-04  0:09:33 1912

  iter  continuity  x-velocity  y-velocity           k       omega     time/iter
    89  7.0015e-03  2.6563e-05  8.5544e-06  9.8818e-04  7.5384e-04  0:07:38 1911
    90  7.0505e-03  2.6369e-05  8.4857e-06  9.7833e-04  7.4359e-04  0:06:07 1910
    91  7.0879e-03  2.6185e-05  8.4174e-06  9.6899e-04  7.3364e-04  0:11:15 1909
    92  7.0960e-03  2.5990e-05  8.3466e-06  9.5986e-04  7.2392e-04  0:09:00 1908
    93  7.0968e-03  2.5826e-05  8.2768e-06  9.5081e-04  7.1433e-04  0:07:11 1907
    94  7.0676e-03  2.5661e-05  8.2137e-06  9.4189e-04  7.0512e-04  0:12:06 1906
    95  7.1013e-03  2.5487e-05  8.1444e-06  9.3309e-04  6.9612e-04  0:09:41 1905
    96  7.1348e-03  2.5287e-05  8.0819e-06  9.2452e-04  6.8742e-04  0:07:44 1904
    97  7.1207e-03  2.5081e-05  8.0199e-06  9.1608e-04  6.7892e-04  0:06:11 1903
    98  7.0865e-03  2.4867e-05  7.9517e-06  9.0777e-04  6.7064e-04  0:11:17 1902
    99  7.0606e-03  2.4664e-05  7.8859e-06  8.9967e-04  6.6262e-04  0:09:01 1901

  iter  continuity  x-velocity  y-velocity           k       omega     time/iter
   100  7.0409e-03  2.4469e-05  7.8179e-06  8.9169e-04  6.5473e-04  0:07:13 1900
   101  7.0361e-03  2.4262e-05  7.7468e-06  8.8404e-04  6.4705e-04  0:05:46 1899
   102  7.0084e-03  2.4060e-05  7.6738e-06  8.7652e-04  6.3957e-04  0:10:56 1898
   103  6.9687e-03  2.3873e-05  7.5972e-06  8.6912e-04  6.3229e-04  0:08:45 1897
   104  6.9440e-03  2.3693e-05  7.5196e-06  8.6184e-04  6.2513e-04  0:07:00 1896
   105  6.9391e-03  2.3521e-05  7.4445e-06  8.5472e-04  6.1814e-04  0:11:55 1895
   106  6.9007e-03  2.3350e-05  7.3664e-06  8.4772e-04  6.1129e-04  0:09:31 1894
   107  6.8315e-03  2.3159e-05  7.2870e-06  8.4095e-04  6.0461e-04  0:07:37 1893
   108  6.7491e-03  2.2953e-05  7.2018e-06  8.3424e-04  5.9807e-04  0:06:05 1892
   109  6.7184e-03  2.2769e-05  7.1188e-06  8.2768e-04  5.9166e-04  0:11:10 1891
   110  6.6963e-03  2.2567e-05  7.0405e-06  8.2126e-04  5.8541e-04  0:08:56 1890

  iter  continuity  x-velocity  y-velocity           k       omega     time/iter
   111  6.6598e-03  2.2381e-05  6.9630e-06  8.1486e-04  5.7927e-04  0:07:09 1889
   112  6.6393e-03  2.2194e-05  6.8905e-06  8.0859e-04  5.7326e-04  0:12:00 1888
   113  6.5833e-03  2.2002e-05  6.8119e-06  8.0231e-04  5.6736e-04  0:09:36 1887
   114  6.5066e-03  2.1816e-05  6.7285e-06  7.9615e-04  5.6165e-04  0:07:40 1886
   115  6.4343e-03  2.1643e-05  6.6503e-06  7.9006e-04  5.5612e-04  0:06:08 1885
   116  6.3572e-03  2.1473e-05  6.5675e-06  7.8405e-04  5.5070e-04  0:11:11 1884
   117  6.2889e-03  2.1298e-05  6.4848e-06  7.7821e-04  5.4538e-04  0:08:57 1883
   118  6.2153e-03  2.1128e-05  6.4091e-06  7.7233e-04  5.4014e-04  0:07:09 1882
   119  6.1424e-03  2.0968e-05  6.3337e-06  7.6655e-04  5.3498e-04  0:05:43 1881
   120  6.0891e-03  2.0809e-05  6.2608e-06  7.6084e-04  5.2995e-04  0:10:50 1880
   121  6.0482e-03  2.0638e-05  6.1861e-06  7.5517e-04  5.2497e-04  0:08:40 1879

  iter  continuity  x-velocity  y-velocity           k       omega     time/iter
   122  6.0038e-03  2.0479e-05  6.1066e-06  7.4944e-04  5.2010e-04  0:06:56 1878
   123  5.9302e-03  2.0319e-05  6.0304e-06  7.4373e-04  5.1531e-04  0:05:32 1877
   124  5.8617e-03  2.0161e-05  5.9570e-06  7.3822e-04  5.1062e-04  0:10:41 1876
   125  5.8199e-03  2.0007e-05  5.8840e-06  7.3271e-04  5.0600e-04  0:08:33 1875
   126  5.7592e-03  1.9858e-05  5.8109e-06  7.2730e-04  5.0146e-04  0:06:50 1874
   127  5.6873e-03  1.9712e-05  5.7304e-06  7.2188e-04  4.9699e-04  0:11:42 1873
   128  5.6424e-03  1.9570e-05  5.6510e-06  7.1656e-04  4.9256e-04  0:09:22 1872
   129  5.5767e-03  1.9426e-05  5.5732e-06  7.1134e-04  4.8814e-04  0:07:29 1871
   130  5.5014e-03  1.9256e-05  5.4962e-06  7.0612e-04  4.8382e-04  0:12:13 1870
   131  5.4197e-03  1.9105e-05  5.4178e-06  7.0095e-04  4.7958e-04  0:09:46 1869
   132  5.3503e-03  1.8951e-05  5.3467e-06  6.9577e-04  4.7539e-04  0:07:49 1868

  iter  continuity  x-velocity  y-velocity           k       omega     time/iter
   133  5.2838e-03  1.8797e-05  5.2733e-06  6.9064e-04  4.7127e-04  0:12:28 1867
   134  5.2278e-03  1.8648e-05  5.1997e-06  6.8558e-04  4.6723e-04  0:09:58 1866
   135  5.1695e-03  1.8503e-05  5.1259e-06  6.8061e-04  4.6327e-04  0:07:58 1865
   136  5.0994e-03  1.8362e-05  5.0542e-06  6.7577e-04  4.5937e-04  0:06:22 1864
   137  5.0187e-03  1.8225e-05  4.9829e-06  6.7084e-04  4.5552e-04  0:11:18 1863
   138  4.9536e-03  1.8086e-05  4.9111e-06  6.6594e-04  4.5173e-04  0:09:02 1862
   139  4.8740e-03  1.7965e-05  4.8430e-06  6.6123e-04  4.4798e-04  0:07:14 1861
   140  4.7917e-03  1.7837e-05  4.7758e-06  6.5647e-04  4.4431e-04  0:05:47 1860
   141  4.7220e-03  1.7711e-05  4.7101e-06  6.5172e-04  4.4067e-04  0:10:49 1859
   142  4.6525e-03  1.7578e-05  4.6428e-06  6.4701e-04  4.3707e-04  0:08:39 1858
   143  4.5868e-03  1.7447e-05  4.5812e-06  6.4244e-04  4.3349e-04  0:06:55 1857

  iter  continuity  x-velocity  y-velocity           k       omega     time/iter
   144  4.5080e-03  1.7327e-05  4.5148e-06  6.3791e-04  4.2994e-04  0:11:43 1856
   145  4.4302e-03  1.7222e-05  4.4455e-06  6.3336e-04  4.2646e-04  0:09:22 1855
   146  4.3646e-03  1.7128e-05  4.3845e-06  6.2877e-04  4.2300e-04  0:07:29 1854
   147  4.3274e-03  1.7038e-05  4.3230e-06  6.2425e-04  4.1957e-04  0:05:59 1853
   148  4.2859e-03  1.6937e-05  4.2586e-06  6.1982e-04  4.1619e-04  0:10:58 1852
   149  4.2503e-03  1.6835e-05  4.1950e-06  6.1548e-04  4.1288e-04  0:08:46 1851
   150  4.2382e-03  1.6742e-05  4.1360e-06  6.1113e-04  4.0960e-04  0:07:00 1850
   151  4.2025e-03  1.6638e-05  4.0770e-06  6.0678e-04  4.0634e-04  0:05:36 1849
   152  4.1522e-03  1.6522e-05  4.0159e-06  6.0241e-04  4.0312e-04  0:10:38 1848
   153  4.1203e-03  1.6408e-05  3.9573e-06  5.9824e-04  3.9997e-04  0:08:30 1847
   154  4.0663e-03  1.6291e-05  3.9002e-06  5.9403e-04  3.9685e-04  0:06:48 1846

  iter  continuity  x-velocity  y-velocity           k       omega     time/iter
   155  4.0391e-03  1.6188e-05  3.8423e-06  5.8982e-04  3.9376e-04  0:11:35 1845
   156  4.0345e-03  1.6096e-05  3.7890e-06  5.8559e-04  3.9066e-04  0:09:16 1844
   157  4.0101e-03  1.6007e-05  3.7335e-06  5.8138e-04  3.8759e-04  0:07:25 1843
   158  3.9796e-03  1.5914e-05  3.6804e-06  5.7727e-04  3.8457e-04  0:05:55 1842
   159  3.9407e-03  1.5808e-05  3.6303e-06  5.7310e-04  3.8162e-04  0:10:52 1841
   160  3.9048e-03  1.5700e-05  3.5806e-06  5.6894e-04  3.7865e-04  0:08:42 1840
   161  3.9026e-03  1.5599e-05  3.5267e-06  5.6488e-04  3.7572e-04  0:06:57 1839
   162  3.8792e-03  1.5493e-05  3.4744e-06  5.6077e-04  3.7284e-04  0:05:33 1838
   163  3.8560e-03  1.5393e-05  3.4259e-06  5.5653e-04  3.7002e-04  0:10:34 1837
   164  3.8126e-03  1.5296e-05  3.3768e-06  5.5232e-04  3.6719e-04  0:08:27 1836
   165  3.7994e-03  1.5209e-05  3.3273e-06  5.4814e-04  3.6438e-04  0:06:45 1835

  iter  continuity  x-velocity  y-velocity           k       omega     time/iter
   166  3.7694e-03  1.5125e-05  3.2833e-06  5.4401e-04  3.6156e-04  0:11:31 1834
   167  3.7672e-03  1.5052e-05  3.2386e-06  5.3998e-04  3.5878e-04  0:09:12 1833
   168  3.7813e-03  1.4975e-05  3.1935e-06  5.3596e-04  3.5603e-04  0:07:22 1832
   169  3.7686e-03  1.4897e-05  3.1446e-06  5.3191e-04  3.5326e-04  0:05:53 1831
   170  3.7401e-03  1.4810e-05  3.1019e-06  5.2789e-04  3.5052e-04  0:10:48 1830
   171  3.7532e-03  1.4732e-05  3.0612e-06  5.2392e-04  3.4780e-04  0:08:38 1829
   172  3.7452e-03  1.4641e-05  3.0233e-06  5.2002e-04  3.4511e-04  0:06:55 1828
   173  3.7493e-03  1.4561e-05  2.9788e-06  5.1607e-04  3.4244e-04  0:05:31 1827
   174  3.7607e-03  1.4482e-05  2.9381e-06  5.1214e-04  3.3977e-04  0:10:30 1826
   175  3.7621e-03  1.4409e-05  2.8987e-06  5.0824e-04  3.3711e-04  0:08:24 1825
   176  3.7842e-03  1.4334e-05  2.8624e-06  5.0438e-04  3.3449e-04  0:12:48 1824

  iter  continuity  x-velocity  y-velocity           k       omega     time/iter
   177  3.7868e-03  1.4268e-05  2.8256e-06  5.0057e-04  3.3190e-04  0:10:14 1823
   178  3.7882e-03  1.4199e-05  2.7854e-06  4.9679e-04  3.2930e-04  0:08:11 1822
   179  3.7676e-03  1.4133e-05  2.7410e-06  4.9301e-04  3.2670e-04  0:06:32 1821
   180  3.7462e-03  1.4061e-05  2.7029e-06  4.8924e-04  3.2410e-04  0:11:18 1820
   181  3.7422e-03  1.3995e-05  2.6653e-06  4.8549e-04  3.2153e-04  0:09:02 1819
   182  3.7323e-03  1.3916e-05  2.6329e-06  4.8177e-04  3.1903e-04  0:07:13 1818
   183  3.7398e-03  1.3824e-05  2.6028e-06  4.7802e-04  3.1654e-04  0:05:46 1817
   184  3.7622e-03  1.3745e-05  2.5686e-06  4.7438e-04  3.1406e-04  0:10:40 1816
   185  3.7676e-03  1.3672e-05  2.5340e-06  4.7078e-04  3.1159e-04  0:08:32 1815
   186  3.7822e-03  1.3596e-05  2.5074e-06  4.6716e-04  3.0916e-04  0:06:49 1814
   187  3.8061e-03  1.3529e-05  2.4801e-06  4.6359e-04  3.0674e-04  0:11:30 1813

  iter  continuity  x-velocity  y-velocity           k       omega     time/iter
   188  3.8156e-03  1.3452e-05  2.4528e-06  4.6008e-04  3.0439e-04  0:09:12 1812
   189  3.8431e-03  1.3369e-05  2.4293e-06  4.5659e-04  3.0212e-04  0:07:21 1811
   190  3.8693e-03  1.3284e-05  2.4034e-06  4.5315e-04  2.9986e-04  0:05:53 1810
   191  3.9020e-03  1.3196e-05  2.3801e-06  4.4975e-04  2.9762e-04  0:10:44 1809
   192  3.8958e-03  1.3098e-05  2.3583e-06  4.4637e-04  2.9537e-04  0:08:35 1808
   193  3.9055e-03  1.3000e-05  2.3341e-06  4.4305e-04  2.9313e-04  0:06:52 1807
   194  3.9150e-03  1.2908e-05  2.3123e-06  4.3981e-04  2.9089e-04  0:05:29 1806
   195  3.9095e-03  1.2819e-05  2.2926e-06  4.3666e-04  2.8865e-04  0:10:24 1805
   196  3.8873e-03  1.2732e-05  2.2725e-06  4.3355e-04  2.8643e-04  0:08:19 1804
   197  3.8703e-03  1.2634e-05  2.2487e-06  4.3050e-04  2.8423e-04  0:06:39 1803
   198  3.8639e-03  1.2553e-05  2.2313e-06  4.2751e-04  2.8205e-04  0:11:19 1802

  iter  continuity  x-velocity  y-velocity           k       omega     time/iter
   199  3.8580e-03  1.2463e-05  2.2199e-06  4.2457e-04  2.7986e-04  0:09:03 1801
   200  3.8696e-03  1.2370e-05  2.2061e-06  4.2167e-04  2.7768e-04  0:07:14 1800
   201  3.8732e-03  1.2271e-05  2.1922e-06  4.1885e-04  2.7552e-04  0:05:47 1799
   202  3.8719e-03  1.2167e-05  2.1809e-06  4.1609e-04  2.7336e-04  0:10:37 1798
   203  3.8743e-03  1.2062e-05  2.1700e-06  4.1342e-04  2.7121e-04  0:08:30 1797
   204  3.8737e-03  1.1954e-05  2.1563e-06  4.1078e-04  2.6907e-04  0:06:47 1796
   205  3.8638e-03  1.1853e-05  2.1432e-06  4.0819e-04  2.6695e-04  0:05:26 1795
   206  3.8569e-03  1.1741e-05  2.1328e-06  4.0566e-04  2.6481e-04  0:10:19 1794
   207  3.8465e-03  1.1638e-05  2.1203e-06  4.0316e-04  2.6269e-04  0:08:15 1793
   208  3.8512e-03  1.1530e-05  2.1104e-06  4.0068e-04  2.6058e-04  0:06:36 1792
   209  3.8380e-03  1.1419e-05  2.0999e-06  3.9826e-04  2.5847e-04  0:05:17 1791

  iter  continuity  x-velocity  y-velocity           k       omega     time/iter
   210  3.8263e-03  1.1307e-05  2.0890e-06  3.9589e-04  2.5638e-04  0:10:11 1790
   211  3.8383e-03  1.1193e-05  2.0769e-06  3.9354e-04  2.5435e-04  0:08:09 1789
   212  3.8437e-03  1.1078e-05  2.0639e-06  3.9123e-04  2.5232e-04  0:06:31 1788
   213  3.8287e-03  1.0956e-05  2.0515e-06  3.8896e-04  2.5029e-04  0:11:10 1787
   214  3.8128e-03  1.0838e-05  2.0382e-06  3.8671e-04  2.4827e-04  0:08:55 1786
   215  3.8003e-03  1.0722e-05  2.0284e-06  3.8448e-04  2.4625e-04  0:07:08 1785
   216  3.7890e-03  1.0613e-05  2.0209e-06  3.8229e-04  2.4425e-04  0:05:42 1784
   217  3.7568e-03  1.0503e-05  2.0123e-06  3.8010e-04  2.4225e-04  0:10:30 1783
   218  3.7220e-03  1.0402e-05  1.9991e-06  3.7792e-04  2.4026e-04  0:08:24 1782
   219  3.6856e-03  1.0304e-05  1.9841e-06  3.7576e-04  2.3827e-04  0:06:43 1781
   220  3.6361e-03  1.0210e-05  1.9769e-06  3.7363e-04  2.3630e-04  0:05:22 1780

  iter  continuity  x-velocity  y-velocity           k       omega     time/iter
   221  3.5927e-03  1.0121e-05  1.9625e-06  3.7148e-04  2.3432e-04  0:10:13 1779
   222  3.5526e-03  1.0032e-05  1.9479e-06  3.6933e-04  2.3234e-04  0:08:10 1778
   223  3.5175e-03  9.9450e-06  1.9333e-06  3.6720e-04  2.3037e-04  0:12:28 1777
   224  3.4856e-03  9.8471e-06  1.9199e-06  3.6507e-04  2.2839e-04  0:09:58 1776
   225  3.4537e-03  9.7438e-06  1.9081e-06  3.6294e-04  2.2642e-04  0:07:58 1775
   226  3.4209e-03  9.6419e-06  1.8938e-06  3.6083e-04  2.2444e-04  0:06:22 1774
   227  3.3856e-03  9.5378e-06  1.8774e-06  3.5874e-04  2.2247e-04  0:11:00 1773
   228  3.3391e-03  9.4374e-06  1.8625e-06  3.5666e-04  2.2051e-04  0:08:48 1772
   229  3.3143e-03  9.3465e-06  1.8488e-06  3.5462e-04  2.1854e-04  0:07:02 1771
   230  3.2786e-03  9.2514e-06  1.8360e-06  3.5258e-04  2.1658e-04  0:05:37 1770
   231  3.2370e-03  9.1614e-06  1.8235e-06  3.5056e-04  2.1463e-04  0:10:24 1769

  iter  continuity  x-velocity  y-velocity           k       omega     time/iter
   232  3.2089e-03  9.0798e-06  1.8136e-06  3.4855e-04  2.1268e-04  0:08:19 1768
   233  3.1804e-03  9.0045e-06  1.8046e-06  3.4655e-04  2.1074e-04  0:06:39 1767
   234  3.1273e-03  8.9273e-06  1.7958e-06  3.4455e-04  2.0882e-04  0:11:12 1766
   235  3.0843e-03  8.8542e-06  1.7835e-06  3.4256e-04  2.0690e-04  0:08:57 1765
   236  3.0406e-03  8.7850e-06  1.7712e-06  3.4058e-04  2.0500e-04  0:07:10 1764
   237  2.9934e-03  8.7166e-06  1.7611e-06  3.3863e-04  2.0312e-04  0:05:43 1763
   238  2.9555e-03  8.6538e-06  1.7520e-06  3.3670e-04  2.0126e-04  0:10:27 1762
   239  2.9242e-03  8.5943e-06  1.7433e-06  3.3478e-04  1.9940e-04  0:08:21 1761
   240  2.8966e-03  8.5344e-06  1.7340e-06  3.3286e-04  1.9756e-04  0:06:41 1760
   241  2.8685e-03  8.4708e-06  1.7248e-06  3.3093e-04  1.9573e-04  0:11:12 1759
   242  2.8305e-03  8.4103e-06  1.7144e-06  3.2904e-04  1.9393e-04  0:08:58 1758

  iter  continuity  x-velocity  y-velocity           k       omega     time/iter
   243  2.7901e-03  8.3477e-06  1.7040e-06  3.2718e-04  1.9215e-04  0:07:10 1757
   244  2.7526e-03  8.2937e-06  1.6945e-06  3.2533e-04  1.9038e-04  0:05:44 1756
   245  2.7237e-03  8.2441e-06  1.6840e-06  3.2351e-04  1.8863e-04  0:10:26 1755
   246  2.6925e-03  8.1963e-06  1.6721e-06  3.2171e-04  1.8688e-04  0:08:20 1754
   247  2.6632e-03  8.1506e-06  1.6632e-06  3.1993e-04  1.8515e-04  0:06:40 1753
   248  2.6375e-03  8.1049e-06  1.6527e-06  3.1818e-04  1.8344e-04  0:05:20 1752
   249  2.6083e-03  8.0590e-06  1.6416e-06  3.1644e-04  1.8175e-04  0:10:06 1751
   250  2.5811e-03  8.0180e-06  1.6302e-06  3.1472e-04  1.8008e-04  0:08:04 1750
   251  2.5437e-03  7.9799e-06  1.6185e-06  3.1300e-04  1.7843e-04  0:06:27 1749
   252  2.5119e-03  7.9430e-06  1.6058e-06  3.1129e-04  1.7681e-04  0:05:10 1748
   253  2.4821e-03  7.9048e-06  1.5938e-06  3.0958e-04  1.7521e-04  0:09:57 1747

  iter  continuity  x-velocity  y-velocity           k       omega     time/iter
   254  2.4511e-03  7.8703e-06  1.5828e-06  3.0789e-04  1.7362e-04  0:07:57 1746
   255  2.4117e-03  7.8333e-06  1.5717e-06  3.0621e-04  1.7206e-04  0:06:22 1745
   256  2.3804e-03  7.7995e-06  1.5592e-06  3.0456e-04  1.7051e-04  0:10:54 1744
   257  2.3557e-03  7.7665e-06  1.5461e-06  3.0293e-04  1.6897e-04  0:08:43 1743
   258  2.3324e-03  7.7317e-06  1.5335e-06  3.0126e-04  1.6747e-04  0:06:58 1742
   259  2.3040e-03  7.6938e-06  1.5213e-06  2.9964e-04  1.6598e-04  0:11:22 1741
   260  2.2816e-03  7.6593e-06  1.5080e-06  2.9801e-04  1.6454e-04  0:09:06 1740
   261  2.2589e-03  7.6242e-06  1.4947e-06  2.9644e-04  1.6310e-04  0:07:16 1739
   262  2.2482e-03  7.5888e-06  1.4817e-06  2.9487e-04  1.6169e-04  0:05:49 1738
   263  2.2388e-03  7.5548e-06  1.4694e-06  2.9333e-04  1.6031e-04  0:10:26 1737
   264  2.2454e-03  7.5231e-06  1.4592e-06  2.9183e-04  1.5897e-04  0:08:21 1736

  iter  continuity  x-velocity  y-velocity           k       omega     time/iter
   265  2.2455e-03  7.4921e-06  1.4469e-06  2.9035e-04  1.5766e-04  0:06:40 1735
   266  2.2400e-03  7.4616e-06  1.4352e-06  2.8891e-04  1.5637e-04  0:05:20 1734
   267  2.2402e-03  7.4289e-06  1.4247e-06  2.8751e-04  1.5510e-04  0:10:03 1733
   268  2.2425e-03  7.3976e-06  1.4129e-06  2.8610e-04  1.5387e-04  0:08:02 1732
   269  2.2420e-03  7.3643e-06  1.4036e-06  2.8470e-04  1.5265e-04  0:12:11 1731
   270  2.2399e-03  7.3316e-06  1.3935e-06  2.8330e-04  1.5148e-04  0:09:45 1730
   271  2.2459e-03  7.3000e-06  1.3819e-06  2.8195e-04  1.5034e-04  0:07:48 1729
   272  2.2510e-03  7.2620e-06  1.3724e-06  2.8059e-04  1.4922e-04  0:06:14 1728
   273  2.2477e-03  7.2238e-06  1.3637e-06  2.7927e-04  1.4814e-04  0:10:44 1727
   274  2.2431e-03  7.1823e-06  1.3547e-06  2.7797e-04  1.4708e-04  0:08:35 1726
   275  2.2358e-03  7.1395e-06  1.3469e-06  2.7667e-04  1.4603e-04  0:06:52 1725

  iter  continuity  x-velocity  y-velocity           k       omega     time/iter
   276  2.2314e-03  7.0983e-06  1.3390e-06  2.7539e-04  1.4501e-04  0:05:29 1724
   277  2.2298e-03  7.0550e-06  1.3316e-06  2.7414e-04  1.4401e-04  0:10:08 1723
   278  2.2330e-03  7.0111e-06  1.3264e-06  2.7290e-04  1.4305e-04  0:08:06 1722
   279  2.2310e-03  6.9668e-06  1.3205e-06  2.7168e-04  1.4212e-04  0:06:29 1721
   280  2.2315e-03  6.9198e-06  1.3121e-06  2.7046e-04  1.4121e-04  0:10:55 1720
   281  2.2235e-03  6.8681e-06  1.3020e-06  2.6926e-04  1.4034e-04  0:08:43 1719
   282  2.2107e-03  6.8177e-06  1.2931e-06  2.6806e-04  1.3950e-04  0:06:59 1718
   283  2.1912e-03  6.7654e-06  1.2871e-06  2.6687e-04  1.3869e-04  0:05:35 1717
   284  2.1768e-03  6.7150e-06  1.2805e-06  2.6568e-04  1.3791e-04  0:10:11 1716
   285  2.1602e-03  6.6646e-06  1.2721e-06  2.6448e-04  1.3715e-04  0:08:08 1715
   286  2.1459e-03  6.6135e-06  1.2644e-06  2.6327e-04  1.3643e-04  0:06:30 1714

  iter  continuity  x-velocity  y-velocity           k       omega     time/iter
   287  2.1267e-03  6.5641e-06  1.2575e-06  2.6204e-04  1.3573e-04  0:05:12 1713
   288  2.1072e-03  6.5159e-06  1.2523e-06  2.6081e-04  1.3506e-04  0:09:52 1712
   289  2.0960e-03  6.4682e-06  1.2473e-06  2.5958e-04  1.3442e-04  0:07:53 1711
   290  2.0823e-03  6.4225e-06  1.2422e-06  2.5837e-04  1.3382e-04  0:06:18 1710
   291  2.0690e-03  6.3743e-06  1.2383e-06  2.5716e-04  1.3324e-04  0:10:44 1709
   292  2.0516e-03  6.3270e-06  1.2330e-06  2.5592e-04  1.3269e-04  0:08:35 1708
   293  2.0355e-03  6.2800e-06  1.2270e-06  2.5470e-04  1.3217e-04  0:06:52 1707
   294  2.0178e-03  6.2302e-06  1.2209e-06  2.5350e-04  1.3167e-04  0:05:29 1706
   295  1.9868e-03  6.1813e-06  1.2145e-06  2.5229e-04  1.3120e-04  0:10:04 1705
   296  1.9638e-03  6.1352e-06  1.2087e-06  2.5109e-04  1.3075e-04  0:08:03 1704
   297  1.9414e-03  6.0897e-06  1.2035e-06  2.4990e-04  1.3032e-04  0:06:26 1703

  iter  continuity  x-velocity  y-velocity           k       omega     time/iter
   298  1.9224e-03  6.0462e-06  1.1981e-06  2.4873e-04  1.2991e-04  0:05:09 1702
   299  1.9006e-03  5.9993e-06  1.1948e-06  2.4755e-04  1.2953e-04  0:09:47 1701
   300  1.8690e-03  5.9513e-06  1.1903e-06  2.4640e-04  1.2917e-04  0:07:49 1700
   301  1.8488e-03  5.9075e-06  1.1854e-06  2.4525e-04  1.2883e-04  0:06:15 1699
   302  1.8298e-03  5.8635e-06  1.1815e-06  2.4410e-04  1.2851e-04  0:05:00 1698
   303  1.8074e-03  5.8201e-06  1.1768e-06  2.4294e-04  1.2821e-04  0:09:39 1697
   304  1.7857e-03  5.7780e-06  1.1734e-06  2.4177e-04  1.2792e-04  0:07:43 1696
   305  1.7657e-03  5.7352e-06  1.1691e-06  2.4060e-04  1.2766e-04  0:06:10 1695
   306  1.7443e-03  5.6928e-06  1.1644e-06  2.3950e-04  1.2742e-04  0:10:35 1694
   307  1.7192e-03  5.6515e-06  1.1598e-06  2.3833e-04  1.2720e-04  0:08:28 1693
   308  1.6936e-03  5.6119e-06  1.1546e-06  2.3721e-04  1.2699e-04  0:06:46 1692

  iter  continuity  x-velocity  y-velocity           k       omega     time/iter
   309  1.6788e-03  5.5748e-06  1.1504e-06  2.3608e-04  1.2680e-04  0:05:24 1691
   310  1.6585e-03  5.5387e-06  1.1466e-06  2.3497e-04  1.2662e-04  0:09:57 1690
   311  1.6425e-03  5.5027e-06  1.1415e-06  2.3390e-04  1.2646e-04  0:07:58 1689
   312  1.6260e-03  5.4671e-06  1.1374e-06  2.3283e-04  1.2631e-04  0:06:22 1688
   313  1.6065e-03  5.4311e-06  1.1329e-06  2.3178e-04  1.2616e-04  0:10:43 1687
   314  1.5861e-03  5.3971e-06  1.1273e-06  2.3074e-04  1.2604e-04  0:08:34 1686
   315  1.5650e-03  5.3633e-06  1.1229e-06  2.2970e-04  1.2593e-04  0:06:51 1685
   316  1.5460e-03  5.3303e-06  1.1188e-06  2.2870e-04  1.2583e-04  0:11:05 1684
   317  1.5260e-03  5.3001e-06  1.1139e-06  2.2770e-04  1.2573e-04  0:08:52 1683
   318  1.5069e-03  5.2678e-06  1.1098e-06  2.2670e-04  1.2564e-04  0:07:05 1682
   319  1.4863e-03  5.2388e-06  1.1053e-06  2.2575e-04  1.2556e-04  0:05:40 1681

  iter  continuity  x-velocity  y-velocity           k       omega     time/iter
   320  1.4672e-03  5.2104e-06  1.1021e-06  2.2478e-04  1.2549e-04  0:10:08 1680
   321  1.4476e-03  5.1825e-06  1.0984e-06  2.2386e-04  1.2542e-04  0:08:06 1679
   322  1.4328e-03  5.1559e-06  1.0951e-06  2.2290e-04  1.2535e-04  0:06:29 1678
   323  1.4146e-03  5.1294e-06  1.0904e-06  2.2198e-04  1.2529e-04  0:05:11 1677
   324  1.4027e-03  5.1025e-06  1.0873e-06  2.2107e-04  1.2523e-04  0:09:44 1676
   325  1.3862e-03  5.0757e-06  1.0842e-06  2.2017e-04  1.2517e-04  0:07:47 1675
   326  1.3770e-03  5.0497e-06  1.0806e-06  2.1929e-04  1.2511e-04  0:06:13 1674
   327  1.3631e-03  5.0227e-06  1.0768e-06  2.1842e-04  1.2505e-04  0:04:58 1673
   328  1.3535e-03  4.9972e-06  1.0737e-06  2.1753e-04  1.2499e-04  0:09:33 1672
   329  1.3481e-03  4.9725e-06  1.0715e-06  2.1665e-04  1.2492e-04  0:07:38 1671
   330  1.3366e-03  4.9492e-06  1.0694e-06  2.1577e-04  1.2483e-04  0:06:06 1670

  iter  continuity  x-velocity  y-velocity           k       omega     time/iter
   331  1.3273e-03  4.9256e-06  1.0681e-06  2.1491e-04  1.2474e-04  0:10:27 1669
   332  1.3190e-03  4.9027e-06  1.0651e-06  2.1405e-04  1.2465e-04  0:08:21 1668
   333  1.3095e-03  4.8786e-06  1.0628e-06  2.1320e-04  1.2454e-04  0:06:41 1667
   334  1.3027e-03  4.8561e-06  1.0593e-06  2.1233e-04  1.2443e-04  0:05:20 1666
   335  1.2952e-03  4.8340e-06  1.0562e-06  2.1147e-04  1.2430e-04  0:09:49 1665
   336  1.2834e-03  4.8111e-06  1.0540e-06  2.1059e-04  1.2417e-04  0:07:51 1664
   337  1.2720e-03  4.7888e-06  1.0502e-06  2.0972e-04  1.2402e-04  0:06:17 1663
   338  1.2575e-03  4.7669e-06  1.0467e-06  2.0884e-04  1.2386e-04  0:05:01 1662
   339  1.2430e-03  4.7427e-06  1.0438e-06  2.0797e-04  1.2369e-04  0:09:33 1661
   340  1.2300e-03  4.7212e-06  1.0407e-06  2.0709e-04  1.2350e-04  0:07:38 1660
   341  1.2159e-03  4.6977e-06  1.0379e-06  2.0620e-04  1.2331e-04  0:06:06 1659

  iter  continuity  x-velocity  y-velocity           k       omega     time/iter
   342  1.2066e-03  4.6748e-06  1.0357e-06  2.0530e-04  1.2309e-04  0:04:53 1658
   343  1.1948e-03  4.6495e-06  1.0328e-06  2.0441e-04  1.2288e-04  0:09:25 1657
   344  1.1841e-03  4.6271e-06  1.0296e-06  2.0352e-04  1.2263e-04  0:07:32 1656
   345  1.1765e-03  4.6027e-06  1.0282e-06  2.0262e-04  1.2238e-04  0:06:01 1655
   346  1.1629e-03  4.5774e-06  1.0252e-06  2.0173e-04  1.2212e-04  0:10:20 1654
   347  1.1481e-03  4.5557e-06  1.0220e-06  2.0082e-04  1.2184e-04  0:08:16 1653
   348  1.1380e-03  4.5317e-06  1.0192e-06  1.9991e-04  1.2155e-04  0:06:36 1652
   349  1.1246e-03  4.5085e-06  1.0171e-06  1.9900e-04  1.2125e-04  0:05:17 1651
   350  1.1181e-03  4.4842e-06  1.0154e-06  1.9810e-04  1.2095e-04  0:09:43 1650
   351  1.1062e-03  4.4598e-06  1.0144e-06  1.9720e-04  1.2063e-04  0:07:46 1649
   352  1.0966e-03  4.4364e-06  1.0117e-06  1.9631e-04  1.2031e-04  0:06:13 1648

  iter  continuity  x-velocity  y-velocity           k       omega     time/iter
   353  1.0863e-03  4.4109e-06  1.0087e-06  1.9542e-04  1.1997e-04  0:04:58 1647
   354  1.0767e-03  4.3865e-06  1.0059e-06  1.9453e-04  1.1963e-04  0:09:28 1646
   355  1.0689e-03  4.3625e-06  1.0027e-06  1.9361e-04  1.1929e-04  0:07:34 1645
   356  1.0645e-03  4.3387e-06  9.9909e-07  1.9270e-04  1.1893e-04  0:06:03 1644
   357  1.0579e-03  4.3127e-06  9.9592e-07  1.9179e-04  1.1856e-04  0:04:50 1643
   358  1.0526e-03  4.2863e-06  9.9338e-07  1.9088e-04  1.1819e-04  0:09:20 1642
   359  1.0455e-03  4.2608e-06  9.9023e-07  1.8994e-04  1.1781e-04  0:07:28 1641
   360  1.0364e-03  4.2346e-06  9.8617e-07  1.8901e-04  1.1743e-04  0:11:26 1640
   361  1.0270e-03  4.2110e-06  9.8289e-07  1.8806e-04  1.1704e-04  0:09:09 1639
   362  1.0195e-03  4.1843e-06  9.7983e-07  1.8709e-04  1.1664e-04  0:07:19 1638
   363  1.0130e-03  4.1581e-06  9.7627e-07  1.8615e-04  1.1625e-04  0:05:51 1637

  iter  continuity  x-velocity  y-velocity           k       omega     time/iter
   364  1.0028e-03  4.1325e-06  9.7163e-07  1.8518e-04  1.1587e-04  0:10:08 1636
   365  9.9841e-04  4.1051e-06  9.6807e-07  1.8421e-04  1.1547e-04  0:08:06 1635
   366  9.9198e-04  4.0792e-06  9.6313e-07  1.8322e-04  1.1507e-04  0:06:28 1634
   367  9.8694e-04  4.0524e-06  9.5977e-07  1.8227e-04  1.1465e-04  0:05:11 1633
   368  9.7993e-04  4.0272e-06  9.5439e-07  1.8132e-04  1.1425e-04  0:09:35 1632
   369  9.7648e-04  3.9996e-06  9.5043e-07  1.8038e-04  1.1383e-04  0:07:39 1631
   370  9.7007e-04  3.9734e-06  9.4616e-07  1.7944e-04  1.1342e-04  0:06:07 1630
   371  9.6286e-04  3.9469e-06  9.3986e-07  1.7841e-04  1.1300e-04  0:10:19 1629
   372  9.5846e-04  3.9201e-06  9.3442e-07  1.7736e-04  1.1260e-04  0:08:15 1628
   373  9.5088e-04  3.8938e-06  9.2935e-07  1.7635e-04  1.1219e-04  0:06:36 1627
   374  9.4646e-04  3.8675e-06  9.2358e-07  1.7533e-04  1.1178e-04  0:05:17 1626

  iter  continuity  x-velocity  y-velocity           k       omega     time/iter
   375  9.3855e-04  3.8417e-06  9.1863e-07  1.7433e-04  1.1135e-04  0:09:38 1625
   376  9.2768e-04  3.8153e-06  9.1177e-07  1.7329e-04  1.1094e-04  0:07:42 1624
   377  9.2170e-04  3.7883e-06  9.0628e-07  1.7227e-04  1.1052e-04  0:06:10 1623
   378  9.1275e-04  3.7613e-06  9.0058e-07  1.7120e-04  1.1010e-04  0:04:55 1622
   379  9.0888e-04  3.7342e-06  8.9452e-07  1.7015e-04  1.0966e-04  0:09:20 1621
   380  9.0469e-04  3.7061e-06  8.8916e-07  1.6909e-04  1.0923e-04  0:07:28 1620
   381  8.9758e-04  3.6790e-06  8.8376e-07  1.6804e-04  1.0880e-04  0:05:58 1619
   382  8.9540e-04  3.6528e-06  8.7729e-07  1.6695e-04  1.0837e-04  0:04:46 1618
   383  8.8945e-04  3.6269e-06  8.7032e-07  1.6588e-04  1.0796e-04  0:09:12 1617
   384  8.8683e-04  3.6015e-06  8.6320e-07  1.6476e-04  1.0754e-04  0:07:22 1616
   385  8.7936e-04  3.5751e-06  8.5659e-07  1.6367e-04  1.0710e-04  0:05:53 1615

  iter  continuity  x-velocity  y-velocity           k       omega     time/iter
   386  8.7284e-04  3.5496e-06  8.4935e-07  1.6255e-04  1.0669e-04  0:10:05 1614
   387  8.7442e-04  3.5240e-06  8.4264e-07  1.6144e-04  1.0624e-04  0:08:04 1613
   388  8.6806e-04  3.4976e-06  8.3683e-07  1.6031e-04  1.0581e-04  0:06:27 1612
   389  8.6398e-04  3.4707e-06  8.3033e-07  1.5918e-04  1.0537e-04  0:05:09 1611
   390  8.5620e-04  3.4456e-06  8.2345e-07  1.5801e-04  1.0493e-04  0:09:29 1610
   391  8.4937e-04  3.4204e-06  8.1710e-07  1.5686e-04  1.0449e-04  0:07:35 1609
   392  8.4160e-04  3.3957e-06  8.1024e-07  1.5571e-04  1.0407e-04  0:06:04 1608
   393  8.3628e-04  3.3722e-06  8.0311e-07  1.5458e-04  1.0364e-04  0:04:51 1607
   394  8.3111e-04  3.3475e-06  7.9660e-07  1.5343e-04  1.0321e-04  0:09:14 1606
   395  8.2385e-04  3.3223e-06  7.8971e-07  1.5228e-04  1.0278e-04  0:07:23 1605
   396  8.1550e-04  3.2978e-06  7.8263e-07  1.5113e-04  1.0235e-04  0:05:54 1604

  iter  continuity  x-velocity  y-velocity           k       omega     time/iter
   397  8.0984e-04  3.2739e-06  7.7555e-07  1.4996e-04  1.0191e-04  0:04:43 1603
   398  8.0247e-04  3.2527e-06  7.6785e-07  1.4879e-04  1.0147e-04  0:09:07 1602
   399  7.9562e-04  3.2297e-06  7.6199e-07  1.4762e-04  1.0102e-04  0:07:17 1601
   400  7.9020e-04  3.2092e-06  7.5516e-07  1.4644e-04  1.0059e-04  0:05:49 1600
   401  7.8654e-04  3.1901e-06  7.4858e-07  1.4528e-04  1.0013e-04  0:09:59 1599
   402  7.7021e-04  3.1715e-06  7.4205e-07  1.4409e-04  9.9673e-05  0:07:59 1598
   403  7.6648e-04  3.1528e-06  7.3615e-07  1.4288e-04  9.9197e-05  0:06:23 1597
   404  7.5601e-04  3.1349e-06  7.2839e-07  1.4172e-04  9.8731e-05  0:10:25 1596
   405  7.5616e-04  3.1185e-06  7.2278e-07  1.4053e-04  9.8257e-05  0:08:20 1595
   406  7.4981e-04  3.1026e-06  7.1634e-07  1.3935e-04  9.7776e-05  0:06:40 1594
   407  7.4753e-04  3.0865e-06  7.1090e-07  1.3817e-04  9.7291e-05  0:05:20 1593

  iter  continuity  x-velocity  y-velocity           k       omega     time/iter
   408  7.4135e-04  3.0719e-06  7.0563e-07  1.3697e-04  9.6771e-05  0:09:34 1592
   409  7.4049e-04  3.0583e-06  7.0045e-07  1.3583e-04  9.6241e-05  0:07:39 1591
   410  7.3974e-04  3.0448e-06  6.9650e-07  1.3465e-04  9.5744e-05  0:06:07 1590
   411  7.3408e-04  3.0327e-06  6.9169e-07  1.3349e-04  9.5235e-05  0:04:53 1589
   412  7.3449e-04  3.0210e-06  6.8743e-07  1.3231e-04  9.4715e-05  0:09:12 1588
   413  7.3502e-04  3.0086e-06  6.8305e-07  1.3115e-04  9.4177e-05  0:07:21 1587
   414  7.2870e-04  2.9967e-06  6.7888e-07  1.2999e-04  9.3663e-05  0:05:53 1586
   415  7.2968e-04  2.9843e-06  6.7530e-07  1.2883e-04  9.3099e-05  0:09:59 1585
   416  7.2620e-04  2.9729e-06  6.7186e-07  1.2763e-04  9.2558e-05  0:07:59 1584
   417  7.2397e-04  2.9622e-06  6.6908e-07  1.2644e-04  9.1979e-05  0:06:23 1583
   418  7.1906e-04  2.9503e-06  6.6654e-07  1.2529e-04  9.1429e-05  0:05:06 1582

  iter  continuity  x-velocity  y-velocity           k       omega     time/iter
   419  7.1140e-04  2.9389e-06  6.6540e-07  1.2415e-04  9.0863e-05  0:09:21 1581
   420  7.0680e-04  2.9276e-06  6.6343e-07  1.2298e-04  9.0314e-05  0:07:29 1580
   421  7.0407e-04  2.9189e-06  6.6210e-07  1.2184e-04  8.9739e-05  0:05:59 1579
   422  6.9895e-04  2.9105e-06  6.6154e-07  1.2066e-04  8.9196e-05  0:04:47 1578
   423  6.9667e-04  2.9009e-06  6.6142e-07  1.1949e-04  8.8634e-05  0:09:05 1577
   424  6.9038e-04  2.8920e-06  6.6135e-07  1.1834e-04  8.8088e-05  0:07:15 1576
   425  6.8624e-04  2.8835e-06  6.6135e-07  1.1717e-04  8.7505e-05  0:05:48 1575
   426  6.8196e-04  2.8738e-06  6.6122e-07  1.1602e-04  8.6960e-05  0:04:38 1574
   427  6.7595e-04  2.8654e-06  6.6022e-07  1.1489e-04  8.6366e-05  0:08:57 1573
   428  6.7393e-04  2.8572e-06  6.6051e-07  1.1378e-04  8.5800e-05  0:07:09 1572
   429  6.7050e-04  2.8502e-06  6.6096e-07  1.1270e-04  8.5211e-05  0:05:43 1571

  iter  continuity  x-velocity  y-velocity           k       omega     time/iter
   430  6.6592e-04  2.8425e-06  6.6089e-07  1.1161e-04  8.4650e-05  0:09:48 1570
   431  6.6104e-04  2.8345e-06  6.6157e-07  1.1050e-04  8.4075e-05  0:07:50 1569
   432  6.5579e-04  2.8297e-06  6.6135e-07  1.0941e-04  8.3505e-05  0:06:16 1568
   433  6.4562e-04  2.8214e-06  6.6191e-07  1.0836e-04  8.2909e-05  0:05:01 1567
   434  6.4237e-04  2.8139e-06  6.6287e-07  1.0726e-04  8.2342e-05  0:09:14 1566
   435  6.3505e-04  2.8051e-06  6.6158e-07  1.0620e-04  8.1752e-05  0:07:23 1565
   436  6.3120e-04  2.7966e-06  6.6183e-07  1.0514e-04  8.1173e-05  0:05:54 1564
   437  6.1638e-04  2.7874e-06  6.5939e-07  1.0406e-04  8.0561e-05  0:04:43 1563
   438  6.1857e-04  2.7822e-06  6.6258e-07  1.0301e-04  7.9983e-05  0:08:59 1562
   439  6.0922e-04  2.7736e-06  6.6123e-07  1.0192e-04  7.9404e-05  0:07:11 1561
   440  6.0893e-04  2.7677e-06  6.6509e-07  1.0088e-04  7.8818e-05  0:05:44 1560

  iter  continuity  x-velocity  y-velocity           k       omega     time/iter
   441  6.0122e-04  2.7588e-06  6.6198e-07  9.9839e-05  7.8242e-05  0:04:35 1559
   442  5.9984e-04  2.7542e-06  6.6468e-07  9.8768e-05  7.7661e-05  0:08:52 1558
   443  6.0141e-04  2.7470e-06  6.6465e-07  9.7736e-05  7.7080e-05  0:07:05 1557
   444  5.9839e-04  2.7393e-06  6.6508e-07  9.6704e-05  7.6506e-05  0:05:40 1556
   445  5.9251e-04  2.7328e-06  6.6486e-07  9.5683e-05  7.5919e-05  0:09:43 1555
   446  5.9337e-04  2.7256e-06  6.6394e-07  9.4654e-05  7.5348e-05  0:07:46 1554
   447  5.9222e-04  2.7194e-06  6.6344e-07  9.3653e-05  7.4763e-05  0:06:12 1553
   448  5.8742e-04  2.7099e-06  6.6186e-07  9.2639e-05  7.4197e-05  0:04:58 1552
   449  5.9030e-04  2.7053e-06  6.6416e-07  9.1648e-05  7.3638e-05  0:09:08 1551
   450  5.8547e-04  2.6962e-06  6.6232e-07  9.0667e-05  7.3079e-05  0:07:18 1550
   451  5.8679e-04  2.6908e-06  6.6365e-07  8.9685e-05  7.2530e-05  0:05:50 1549

  iter  continuity  x-velocity  y-velocity           k       omega     time/iter
   452  5.8288e-04  2.6812e-06  6.6126e-07  8.8731e-05  7.1967e-05  0:09:50 1548
   453  5.8293e-04  2.6740e-06  6.6166e-07  8.7780e-05  7.1409e-05  0:07:52 1547
   454  5.8383e-04  2.6685e-06  6.6062e-07  8.6832e-05  7.0850e-05  0:06:17 1546
   455  5.8493e-04  2.6626e-06  6.6001e-07  8.5893e-05  7.0318e-05  0:05:01 1545
   456  5.8249e-04  2.6559e-06  6.5962e-07  8.4957e-05  6.9765e-05  0:09:10 1544
   457  5.8042e-04  2.6500e-06  6.5902e-07  8.4030e-05  6.9249e-05  0:07:20 1543
   458  5.7708e-04  2.6425e-06  6.5810e-07  8.3108e-05  6.8727e-05  0:05:51 1542
   459  5.7451e-04  2.6348e-06  6.5753e-07  8.2218e-05  6.8237e-05  0:09:49 1541
   460  5.7262e-04  2.6295e-06  6.5474e-07  8.1337e-05  6.7695e-05  0:07:51 1540
   461  5.6837e-04  2.6234e-06  6.5343e-07  8.0458e-05  6.7180e-05  0:06:17 1539
   462  5.6637e-04  2.6163e-06  6.5160e-07  7.9601e-05  6.6681e-05  0:05:01 1538

  iter  continuity  x-velocity  y-velocity           k       omega     time/iter
   463  5.6164e-04  2.6100e-06  6.4909e-07  7.8755e-05  6.6192e-05  0:09:08 1537
   464  5.5633e-04  2.6033e-06  6.4728e-07  7.7927e-05  6.5692e-05  0:07:18 1536
   465  5.5824e-04  2.5976e-06  6.4484e-07  7.7118e-05  6.5218e-05  0:05:50 1535
   466  5.5462e-04  2.5909e-06  6.4179e-07  7.6299e-05  6.4710e-05  0:04:40 1534
   467  5.5523e-04  2.5854e-06  6.3853e-07  7.5491e-05  6.4258e-05  0:08:51 1533
   468  5.6182e-04  2.5802e-06  6.3915e-07  7.4702e-05  6.3771e-05  0:07:04 1532
   469  5.5643e-04  2.5731e-06  6.3441e-07  7.3944e-05  6.3321e-05  0:05:39 1531
   470  5.6006e-04  2.5677e-06  6.3278e-07  7.3229e-05  6.2845e-05  0:04:31 1530
   471  5.5400e-04  2.5601e-06  6.2726e-07  7.2504e-05  6.2383e-05  0:08:43 1529
   472  5.5990e-04  2.5550e-06  6.2656e-07  7.1789e-05  6.1924e-05  0:06:58 1528
   473  5.5775e-04  2.5495e-06  6.1960e-07  7.1109e-05  6.1448e-05  0:05:34 1527

  iter  continuity  x-velocity  y-velocity           k       omega     time/iter
   474  5.5847e-04  2.5429e-06  6.1683e-07  7.0421e-05  6.0990e-05  0:09:32 1526
   475  5.5759e-04  2.5360e-06  6.1404e-07  6.9757e-05  6.0535e-05  0:07:37 1525
   476  5.5990e-04  2.5319e-06  6.0990e-07  6.9114e-05  6.0082e-05  0:06:06 1524
   477  5.6038e-04  2.5253e-06  6.0608e-07  6.8465e-05  5.9636e-05  0:04:52 1523
   478  5.5956e-04  2.5201e-06  6.0204e-07  6.7828e-05  5.9188e-05  0:08:58 1522
   479  5.5783e-04  2.5139e-06  5.9705e-07  6.7202e-05  5.8751e-05  0:07:10 1521
   480  5.5734e-04  2.5080e-06  5.9287e-07  6.6592e-05  5.8333e-05  0:05:44 1520
   481  5.5886e-04  2.5021e-06  5.8749e-07  6.5974e-05  5.7915e-05  0:04:35 1519
   482  5.5618e-04  2.4974e-06  5.8213e-07  6.5376e-05  5.7506e-05  0:08:43 1518
   483  5.6049e-04  2.4912e-06  5.7778e-07  6.4783e-05  5.7100e-05  0:06:58 1517
   484  5.5769e-04  2.4853e-06  5.7252e-07  6.4201e-05  5.6706e-05  0:05:35 1516

  iter  continuity  x-velocity  y-velocity           k       omega     time/iter
   485  5.5990e-04  2.4792e-06  5.6786e-07  6.3642e-05  5.6318e-05  0:04:27 1515
   486  5.6268e-04  2.4737e-06  5.6269e-07  6.3093e-05  5.5935e-05  0:08:37 1514
   487  5.6067e-04  2.4681e-06  5.5770e-07  6.2533e-05  5.5549e-05  0:06:53 1513
   488  5.6359e-04  2.4629e-06  5.5175e-07  6.1990e-05  5.5185e-05  0:05:30 1512
   489  5.6525e-04  2.4572e-06  5.4694e-07  6.1464e-05  5.4804e-05  0:09:26 1511
   490  5.6487e-04  2.4510e-06  5.4110e-07  6.0952e-05  5.4445e-05  0:07:33 1510
   491  5.6794e-04  2.4448e-06  5.3634e-07  6.0452e-05  5.4087e-05  0:06:02 1509
   492  5.6962e-04  2.4399e-06  5.3058e-07  5.9960e-05  5.3716e-05  0:04:49 1508
   493  5.7114e-04  2.4334e-06  5.2439e-07  5.9494e-05  5.3349e-05  0:08:53 1507
   494  5.7309e-04  2.4268e-06  5.1876e-07  5.9031e-05  5.2988e-05  0:07:06 1506
   495  5.7571e-04  2.4207e-06  5.1298e-07  5.8576e-05  5.2613e-05  0:05:40 1505

  iter  continuity  x-velocity  y-velocity           k       omega     time/iter
   496  5.7330e-04  2.4123e-06  5.0844e-07  5.8119e-05  5.2247e-05  0:09:33 1504
   497  5.6551e-04  2.4047e-06  4.9919e-07  5.7697e-05  5.1895e-05  0:07:38 1503
   498  5.7717e-04  2.3987e-06  4.9663e-07  5.7267e-05  5.1540e-05  0:06:06 1502
   499  5.7335e-04  2.3913e-06  4.8798e-07  5.6856e-05  5.1187e-05  0:04:53 1501
   500  5.8153e-04  2.3856e-06  4.8500e-07  5.6446e-05  5.0843e-05  0:08:54 1500
   501  5.7821e-04  2.3783e-06  4.7754e-07  5.6025e-05  5.0509e-05  0:07:07 1499
   502  5.8810e-04  2.3729e-06  4.7442e-07  5.5625e-05  5.0166e-05  0:05:41 1498
   503  5.8599e-04  2.3643e-06  4.6632e-07  5.5229e-05  4.9830e-05  0:09:32 1497
   504  5.9082e-04  2.3574e-06  4.6360e-07  5.4853e-05  4.9501e-05  0:07:38 1496
   505  5.8929e-04  2.3500e-06  4.5551e-07  5.4490e-05  4.9184e-05  0:06:06 1495
   506  5.9815e-04  2.3428e-06  4.5365e-07  5.4133e-05  4.8864e-05  0:04:52 1494

  iter  continuity  x-velocity  y-velocity           k       omega     time/iter
   507  5.9519e-04  2.3352e-06  4.4457e-07  5.3770e-05  4.8542e-05  0:08:52 1493
   508  6.0447e-04  2.3287e-06  4.4193e-07  5.3366e-05  4.8223e-05  0:07:06 1492
   509  6.0465e-04  2.3211e-06  4.3340e-07  5.2958e-05  4.7921e-05  0:05:40 1491
   510  6.0975e-04  2.3136e-06  4.3131e-07  5.2586e-05  4.7624e-05  0:04:32 1490
   511  6.0439e-04  2.3050e-06  4.2380e-07  5.2232e-05  4.7329e-05  0:08:35 1489
   512  6.1618e-04  2.2977e-06  4.2170e-07  5.1879e-05  4.7037e-05  0:06:52 1488
   513  6.1225e-04  2.2910e-06  4.1310e-07  5.1540e-05  4.6746e-05  0:05:29 1487
   514  6.1815e-04  2.2839e-06  4.1090e-07  5.1179e-05  4.6440e-05  0:09:20 1486
   515  6.1785e-04  2.2764e-06  4.0316e-07  5.0806e-05  4.6150e-05  0:07:28 1485
   516  6.2487e-04  2.2689e-06  4.0172e-07  5.0439e-05  4.5853e-05  0:05:58 1484
   517  6.2257e-04  2.2618e-06  3.9378e-07  5.0091e-05  4.5568e-05  0:04:46 1483

  iter  continuity  x-velocity  y-velocity           k       omega     time/iter
   518  6.2674e-04  2.2539e-06  3.9216e-07  4.9754e-05  4.5282e-05  0:08:45 1482
   519  6.2576e-04  2.2458e-06  3.8389e-07  4.9400e-05  4.5009e-05  0:07:00 1481
   520  6.3058e-04  2.2400e-06  3.8225e-07  4.9060e-05  4.4737e-05  0:05:36 1480
   521  6.2963e-04  2.2316e-06  3.7529e-07  4.8718e-05  4.4477e-05  0:04:28 1479
   522  6.3401e-04  2.2234e-06  3.7497e-07  4.8394e-05  4.4216e-05  0:08:30 1478
   523  6.3367e-04  2.2146e-06  3.6900e-07  4.8034e-05  4.3969e-05  0:06:48 1477
   524  6.3742e-04  2.2068e-06  3.6838e-07  4.7719e-05  4.3716e-05  0:05:26 1476
   525  6.3350e-04  2.1986e-06  3.6138e-07  4.7406e-05  4.3482e-05  0:04:21 1475
   526  6.4217e-04  2.1914e-06  3.6218e-07  4.7119e-05  4.3236e-05  0:08:23 1474
   527  6.4664e-04  2.1834e-06  3.5890e-07  4.6817e-05  4.3006e-05  0:06:42 1473
   528  6.4957e-04  2.1764e-06  3.5537e-07  4.6533e-05  4.2775e-05  0:05:22 1472

  iter  continuity  x-velocity  y-velocity           k       omega     time/iter
   529  6.5212e-04  2.1694e-06  3.5258e-07  4.6233e-05  4.2549e-05  0:09:11 1471
   530  6.5017e-04  2.1616e-06  3.5064e-07  4.5926e-05  4.2315e-05  0:07:21 1470
   531  6.5473e-04  2.1561e-06  3.4826e-07  4.5615e-05  4.2103e-05  0:05:52 1469
   532  6.5867e-04  2.1494e-06  3.4685e-07  4.5305e-05  4.1886e-05  0:04:42 1468
   533  6.6416e-04  2.1407e-06  3.4516e-07  4.4998e-05  4.1675e-05  0:08:39 1467
   534  6.6953e-04  2.1339e-06  3.4407e-07  4.4682e-05  4.1467e-05  0:06:55 1466
   535  6.7244e-04  2.1281e-06  3.4217e-07  4.4381e-05  4.1265e-05  0:05:31 1465
   536  6.7113e-04  2.1211e-06  3.4072e-07  4.4087e-05  4.1067e-05  0:04:25 1464
   537  6.7721e-04  2.1161e-06  3.3945e-07  4.3791e-05  4.0874e-05  0:08:24 1463
   538  6.7301e-04  2.1110e-06  3.3763e-07  4.3510e-05  4.0668e-05  0:06:43 1462
   539  6.7193e-04  2.1048e-06  3.3652e-07  4.3216e-05  4.0472e-05  0:05:22 1461

  iter  continuity  x-velocity  y-velocity           k       omega     time/iter
   540  6.7407e-04  2.0987e-06  3.3563e-07  4.2916e-05  4.0270e-05  0:04:18 1460
   541  6.6632e-04  2.0920e-06  3.3416e-07  4.2613e-05  4.0078e-05  0:08:18 1459
   542  6.6894e-04  2.0863e-06  3.3223e-07  4.2314e-05  3.9878e-05  0:06:38 1458
   543  6.6831e-04  2.0806e-06  3.2986e-07  4.2000e-05  3.9691e-05  0:10:10 1457
   544  6.6684e-04  2.0727e-06  3.2896e-07  4.1686e-05  3.9508e-05  0:08:07 1456
   545  6.6783e-04  2.0650e-06  3.2810e-07  4.1386e-05  3.9334e-05  0:06:30 1455
   546  6.6819e-04  2.0579e-06  3.2638e-07  4.1094e-05  3.9147e-05  0:10:02 1454
   547  6.6488e-04  2.0520e-06  3.2588e-07  4.0811e-05  3.8984e-05  0:08:01 1453
   548  6.6473e-04  2.0481e-06  3.2566e-07  4.0496e-05  3.8800e-05  0:06:25 1452
   549  6.6278e-04  2.0428e-06  3.2551e-07  4.0179e-05  3.8640e-05  0:05:08 1451
   550  6.5761e-04  2.0354e-06  3.2418e-07  3.9887e-05  3.8471e-05  0:08:56 1450

  iter  continuity  x-velocity  y-velocity           k       omega     time/iter
   551  6.5408e-04  2.0300e-06  3.2260e-07  3.9592e-05  3.8330e-05  0:07:09 1449
   552  6.4407e-04  2.0236e-06  3.1770e-07  3.9305e-05  3.8160e-05  0:05:43 1448
   553  6.4820e-04  2.0180e-06  3.2067e-07  3.9032e-05  3.7999e-05  0:04:34 1447
   554  6.3832e-04  2.0119e-06  3.1530e-07  3.8746e-05  3.7844e-05  0:08:28 1446
   555  6.3393e-04  2.0054e-06  3.1454e-07  3.8470e-05  3.7711e-05  0:06:46 1445
   556  6.2652e-04  2.0012e-06  3.1475e-07  3.8189e-05  3.7576e-05  0:05:25 1444
   557  6.2521e-04  1.9956e-06  3.1466e-07  3.7907e-05  3.7444e-05  0:04:20 1443
   558  6.2464e-04  1.9890e-06  3.1332e-07  3.7630e-05  3.7289e-05  0:08:16 1442
   559  6.1913e-04  1.9832e-06  3.1315e-07  3.7347e-05  3.7153e-05  0:06:36 1441
   560  6.1605e-04  1.9761e-06  3.1165e-07  3.7065e-05  3.7006e-05  0:05:17 1440
   561  6.1370e-04  1.9701e-06  3.0989e-07  3.6785e-05  3.6878e-05  0:09:01 1439

  iter  continuity  x-velocity  y-velocity           k       omega     time/iter
   562  6.0966e-04  1.9640e-06  3.0916e-07  3.6528e-05  3.6741e-05  0:07:13 1438
   563  6.0461e-04  1.9591e-06  3.0752e-07  3.6276e-05  3.6618e-05  0:05:46 1437
   564  6.0292e-04  1.9535e-06  3.0658e-07  3.6049e-05  3.6493e-05  0:04:37 1436
   565  6.0161e-04  1.9483e-06  3.0609e-07  3.5824e-05  3.6377e-05  0:08:28 1435
   566  6.0092e-04  1.9442e-06  3.0573e-07  3.5607e-05  3.6252e-05  0:06:46 1434
   567  5.9643e-04  1.9394e-06  3.0387e-07  3.5389e-05  3.6139e-05  0:05:25 1433
   568  5.9358e-04  1.9345e-06  3.0291e-07  3.5174e-05  3.6014e-05  0:04:20 1432
   569  5.9374e-04  1.9297e-06  3.0225e-07  3.4971e-05  3.5916e-05  0:08:14 1431
   570  5.9152e-04  1.9239e-06  3.0224e-07  3.4774e-05  3.5803e-05  0:06:35 1430
   571  5.8750e-04  1.9181e-06  3.0189e-07  3.4573e-05  3.5703e-05  0:05:16 1429
   572  5.8644e-04  1.9127e-06  3.0080e-07  3.4379e-05  3.5591e-05  0:08:58 1428

  iter  continuity  x-velocity  y-velocity           k       omega     time/iter
   573  5.9016e-04  1.9081e-06  3.0034e-07  3.4178e-05  3.5487e-05  0:07:10 1427
   574  5.8533e-04  1.9024e-06  2.9963e-07  3.3979e-05  3.5367e-05  0:05:44 1426
   575  5.8248e-04  1.8961e-06  2.9898e-07  3.3786e-05  3.5259e-05  0:04:35 1425
   576  5.8104e-04  1.8921e-06  2.9746e-07  3.3586e-05  3.5162e-05  0:08:24 1424
   577  5.8123e-04  1.8869e-06  2.9665e-07  3.3384e-05  3.5070e-05  0:06:43 1423
   578  5.7826e-04  1.8811e-06  2.9606e-07  3.3164e-05  3.4972e-05  0:05:22 1422
   579  5.7905e-04  1.8755e-06  2.9650e-07  3.2945e-05  3.4887e-05  0:04:18 1421
   580  5.8069e-04  1.8713e-06  2.9545e-07  3.2744e-05  3.4796e-05  0:08:10 1420
   581  5.7659e-04  1.8656e-06  2.9543e-07  3.2544e-05  3.4712e-05  0:06:32 1419
   582  5.7879e-04  1.8602e-06  2.9403e-07  3.2325e-05  3.4627e-05  0:05:13 1418
   583  5.7766e-04  1.8554e-06  2.9381e-07  3.2091e-05  3.4553e-05  0:04:10 1417

  iter  continuity  x-velocity  y-velocity           k       omega     time/iter
   584  5.7813e-04  1.8514e-06  2.9364e-07  3.1868e-05  3.4468e-05  0:08:03 1416
   585  5.7909e-04  1.8455e-06  2.9244e-07  3.1645e-05  3.4396e-05  0:06:26 1415
   586  5.7351e-04  1.8410e-06  2.9122e-07  3.1428e-05  3.4312e-05  0:05:09 1414
   587  5.7242e-04  1.8353e-06  2.9053e-07  3.1210e-05  3.4242e-05  0:08:50 1413
   588  5.6719e-04  1.8297e-06  2.8994e-07  3.0995e-05  3.4167e-05  0:07:03 1412
   589  5.6695e-04  1.8251e-06  2.8900e-07  3.0776e-05  3.4097e-05  0:05:38 1411
   590  5.6558e-04  1.8194e-06  2.8859e-07  3.0565e-05  3.4021e-05  0:09:13 1410
   591  5.6029e-04  1.8133e-06  2.8781e-07  3.0360e-05  3.3959e-05  0:07:22 1409
   592  5.5322e-04  1.8061e-06  2.8346e-07  3.0158e-05  3.3892e-05  0:05:53 1408
   593  5.5163e-04  1.7993e-06  2.8532e-07  2.9942e-05  3.3831e-05  0:04:42 1407
   594  5.4767e-04  1.7928e-06  2.8028e-07  2.9721e-05  3.3765e-05  0:08:27 1406

  iter  continuity  x-velocity  y-velocity           k       omega     time/iter
   595  5.4910e-04  1.7878e-06  2.8202e-07  2.9496e-05  3.3714e-05  0:06:45 1405
   596  5.4269e-04  1.7813e-06  2.7773e-07  2.9282e-05  3.3647e-05  0:05:24 1404
   597  5.4041e-04  1.7766e-06  2.7934e-07  2.9065e-05  3.3602e-05  0:09:00 1403
   598  5.3494e-04  1.7706e-06  2.7613e-07  2.8851e-05  3.3532e-05  0:07:11 1402
   599  5.3626e-04  1.7658e-06  2.7845e-07  2.8636e-05  3.3491e-05  0:05:45 1401
   600  5.3000e-04  1.7587e-06  2.7456e-07  2.8415e-05  3.3419e-05  0:04:36 1400
   601  5.3139e-04  1.7535e-06  2.7687e-07  2.8180e-05  3.3379e-05  0:08:20 1399
   602  5.2315e-04  1.7465e-06  2.7131e-07  2.7950e-05  3.3308e-05  0:06:40 1398
   603  5.2542e-04  1.7414e-06  2.7462e-07  2.7728e-05  3.3276e-05  0:05:20 1397
   604  5.1800e-04  1.7341e-06  2.7038e-07  2.7501e-05  3.3217e-05  0:04:16 1396
   605  5.2074e-04  1.7284e-06  2.7226e-07  2.7285e-05  3.3185e-05  0:08:03 1395

  iter  continuity  x-velocity  y-velocity           k       omega     time/iter
   606  5.1195e-04  1.7213e-06  2.6654e-07  2.7069e-05  3.3124e-05  0:06:26 1394
   607  5.1547e-04  1.7173e-06  2.6951e-07  2.6847e-05  3.3092e-05  0:05:09 1393
   608  5.0996e-04  1.7111e-06  2.6453e-07  2.6632e-05  3.3035e-05  0:04:07 1392
   609  5.1590e-04  1.7056e-06  2.6778e-07  2.6403e-05  3.3007e-05  0:07:56 1391
   610  5.0909e-04  1.6991e-06  2.6315e-07  2.6178e-05  3.2945e-05  0:06:20 1390
   611  5.1234e-04  1.6938e-06  2.6609e-07  2.5952e-05  3.2915e-05  0:05:04 1389
   612  5.0685e-04  1.6879e-06  2.6106e-07  2.5736e-05  3.2859e-05  0:08:41 1388
   613  5.0938e-04  1.6834e-06  2.6412e-07  2.5514e-05  3.2830e-05  0:06:56 1387
   614  5.0237e-04  1.6776e-06  2.5932e-07  2.5290e-05  3.2778e-05  0:05:33 1386
   615  5.0528e-04  1.6728e-06  2.6287e-07  2.5052e-05  3.2749e-05  0:04:26 1385
   616  4.9598e-04  1.6676e-06  2.5819e-07  2.4822e-05  3.2700e-05  0:08:09 1384

  iter  continuity  x-velocity  y-velocity           k       omega     time/iter
   617  4.9922e-04  1.6631e-06  2.6136e-07  2.4594e-05  3.2674e-05  0:06:31 1383
   618  4.9517e-04  1.6581e-06  2.5629e-07  2.4375e-05  3.2617e-05  0:05:13 1382
   619  4.9917e-04  1.6546e-06  2.5923e-07  2.4152e-05  3.2581e-05  0:04:10 1381
   620  4.9433e-04  1.6483e-06  2.5429e-07  2.3937e-05  3.2527e-05  0:07:56 1380
   621  4.9794e-04  1.6430e-06  2.5617e-07  2.3722e-05  3.2499e-05  0:06:20 1379
   622  4.9395e-04  1.6369e-06  2.5518e-07  2.3511e-05  3.2445e-05  0:05:04 1378
   623  4.9198e-04  1.6313e-06  2.5282e-07  2.3305e-05  3.2423e-05  0:08:39 1377
   624  4.9126e-04  1.6269e-06  2.5570e-07  2.3100e-05  3.2368e-05  0:06:55 1376
   625  4.8997e-04  1.6204e-06  2.5057e-07  2.2898e-05  3.2345e-05  0:05:31 1375
   626  4.8956e-04  1.6161e-06  2.5137e-07  2.2701e-05  3.2288e-05  0:04:25 1374
   627  4.8724e-04  1.6105e-06  2.5011e-07  2.2501e-05  3.2266e-05  0:08:06 1373

  iter  continuity  x-velocity  y-velocity           k       omega     time/iter
   628  4.8916e-04  1.6037e-06  2.4810e-07  2.2303e-05  3.2211e-05  0:06:29 1372
   629  4.8870e-04  1.5979e-06  2.5078e-07  2.2100e-05  3.2178e-05  0:05:11 1371
   630  4.8066e-04  1.5913e-06  2.4547e-07  2.1908e-05  3.2118e-05  0:04:08 1370
   631  4.8309e-04  1.5874e-06  2.4599e-07  2.1713e-05  3.2088e-05  0:07:52 1369
   632  4.7961e-04  1.5813e-06  2.4354e-07  2.1516e-05  3.2038e-05  0:06:18 1368
   633  4.8252e-04  1.5769e-06  2.4625e-07  2.1326e-05  3.2012e-05  0:09:35 1367
   634  4.7907e-04  1.5716e-06  2.4164e-07  2.1132e-05  3.1953e-05  0:07:40 1366
   635  4.8149e-04  1.5651e-06  2.4229e-07  2.0940e-05  3.1928e-05  0:06:08 1365
   636  4.8548e-04  1.5607e-06  2.4400e-07  2.0732e-05  3.1878e-05  0:04:54 1364
   637  4.7992e-04  1.5543e-06  2.3940e-07  2.0531e-05  3.1855e-05  0:08:28 1363
   638  4.7992e-04  1.5469e-06  2.4020e-07  2.0334e-05  3.1801e-05  0:06:46 1362

  iter  continuity  x-velocity  y-velocity           k       omega     time/iter
   639  4.7969e-04  1.5404e-06  2.4002e-07  2.0130e-05  3.1780e-05  0:05:24 1361
   640  4.8044e-04  1.5339e-06  2.3743e-07  1.9930e-05  3.1733e-05  0:04:19 1360
   641  4.7999e-04  1.5282e-06  2.3777e-07  1.9740e-05  3.1705e-05  0:07:59 1359
   642  4.7469e-04  1.5217e-06  2.3548e-07  1.9546e-05  3.1650e-05  0:06:23 1358
   643  4.7651e-04  1.5159e-06  2.3629e-07  1.9350e-05  3.1631e-05  0:05:06 1357
   644  4.7053e-04  1.5097e-06  2.3381e-07  1.9153e-05  3.1583e-05  0:04:05 1356
   645  4.6940e-04  1.5043e-06  2.3433e-07  1.8967e-05  3.1515e-05  0:07:47 1355
   646  4.6684e-04  1.4977e-06  2.3256e-07  1.8753e-05  3.1428e-05  0:06:13 1354
   647  4.6635e-04  1.4912e-06  2.3224e-07  1.8574e-05  3.1361e-05  0:04:58 1353
   648  4.6553e-04  1.4856e-06  2.3238e-07  1.8402e-05  3.1269e-05  0:08:29 1352
   649  4.5954e-04  1.4804e-06  2.3048e-07  1.8232e-05  3.1206e-05  0:06:47 1351

  iter  continuity  x-velocity  y-velocity           k       omega     time/iter
   650  4.5832e-04  1.4743e-06  2.3058e-07  1.8071e-05  3.1114e-05  0:05:25 1350
   651  4.5502e-04  1.4682e-06  2.3046e-07  1.7910e-05  3.1047e-05  0:04:20 1349
   652  4.5094e-04  1.4624e-06  2.2716e-07  1.7753e-05  3.0954e-05  0:07:57 1348
   653  4.4913e-04  1.4564e-06  2.2678e-07  1.7602e-05  3.0898e-05  0:06:22 1347
   654  4.4499e-04  1.4506e-06  2.2571e-07  1.7448e-05  3.0808e-05  0:05:05 1346
   655  4.4341e-04  1.4449e-06  2.2410e-07  1.7283e-05  3.0750e-05  0:04:04 1345
   656  4.4201e-04  1.4390e-06  2.2254e-07  1.7126e-05  3.0668e-05  0:07:44 1344
   657  4.4040e-04  1.4338e-06  2.2250e-07  1.6976e-05  3.0607e-05  0:06:11 1343
   658  4.3557e-04  1.4285e-06  2.2084e-07  1.6821e-05  3.0527e-05  0:04:56 1342
   659  4.3714e-04  1.4235e-06  2.1979e-07  1.6665e-05  3.0457e-05  0:03:57 1341
   660  4.3228e-04  1.4177e-06  2.1924e-07  1.6504e-05  3.0371e-05  0:07:37 1340

  iter  continuity  x-velocity  y-velocity           k       omega     time/iter
   661  4.3135e-04  1.4114e-06  2.1831e-07  1.6349e-05  3.0316e-05  0:06:06 1339
   662  4.3034e-04  1.4057e-06  2.1752e-07  1.6192e-05  3.0229e-05  0:04:52 1338
   663  4.2732e-04  1.3993e-06  2.1573e-07  1.6042e-05  3.0172e-05  0:08:21 1337
   664  4.2381e-04  1.3937e-06  2.1513e-07  1.5889e-05  3.0085e-05  0:06:41 1336
   665  4.2079e-04  1.3879e-06  2.1411e-07  1.5737e-05  3.0033e-05  0:05:20 1335
   666  4.1806e-04  1.3835e-06  2.1259e-07  1.5587e-05  2.9945e-05  0:04:16 1334
   667  4.1991e-04  1.3786e-06  2.1081e-07  1.5450e-05  2.9891e-05  0:07:51 1333
   668  4.1732e-04  1.3731e-06  2.0994e-07  1.5316e-05  2.9797e-05  0:06:17 1332
   669  4.1495e-04  1.3674e-06  2.0931e-07  1.5166e-05  2.9751e-05  0:05:01 1331
   670  4.1295e-04  1.3621e-06  2.0867e-07  1.5008e-05  2.9661e-05  0:04:01 1330
   671  4.1346e-04  1.3577e-06  2.0818e-07  1.4857e-05  2.9599e-05  0:07:38 1329

  iter  continuity  x-velocity  y-velocity           k       omega     time/iter
   672  4.0910e-04  1.3519e-06  2.0746e-07  1.4722e-05  2.9510e-05  0:06:06 1328
   673  4.1108e-04  1.3463e-06  2.0652e-07  1.4592e-05  2.9450e-05  0:04:53 1327
   674  4.1190e-04  1.3414e-06  2.0519e-07  1.4471e-05  2.9344e-05  0:03:54 1326
   675  4.0893e-04  1.3373e-06  2.0392e-07  1.4347e-05  2.9279e-05  0:07:32 1325
   676  4.0482e-04  1.3310e-06  2.0215e-07  1.4215e-05  2.9176e-05  0:06:01 1324
   677  4.0666e-04  1.3263e-06  2.0149e-07  1.4091e-05  2.9101e-05  0:04:49 1323
   678  4.0574e-04  1.3217e-06  2.0107e-07  1.3973e-05  2.8999e-05  0:08:15 1322
   679  4.0417e-04  1.3174e-06  2.0025e-07  1.3864e-05  2.8926e-05  0:06:36 1321
   680  4.0206e-04  1.3110e-06  1.9927e-07  1.3698e-05  2.8822e-05  0:05:17 1320
   681  4.0188e-04  1.3058e-06  1.9851e-07  1.3549e-05  2.8746e-05  0:08:37 1319
   682  4.0046e-04  1.3016e-06  1.9658e-07  1.3411e-05  2.8640e-05  0:06:53 1318

  iter  continuity  x-velocity  y-velocity           k       omega     time/iter
   683  3.9657e-04  1.2966e-06  1.9591e-07  1.3280e-05  2.8572e-05  0:05:30 1317
   684  3.9593e-04  1.2923e-06  1.9465e-07  1.3149e-05  2.8460e-05  0:04:24 1316
   685  3.9384e-04  1.2871e-06  1.9346e-07  1.3025e-05  2.8390e-05  0:07:54 1315
   686  3.9299e-04  1.2830e-06  1.9250e-07  1.2909e-05  2.8289e-05  0:06:19 1314
   687  3.9097e-04  1.2786e-06  1.9152e-07  1.2789e-05  2.8212e-05  0:05:03 1313
   688  3.8873e-04  1.2740e-06  1.9082e-07  1.2666e-05  2.8119e-05  0:04:02 1312
   689  3.8702e-04  1.2686e-06  1.9020e-07  1.2547e-05  2.8032e-05  0:07:36 1311
   690  3.8506e-04  1.2639e-06  1.8914e-07  1.2424e-05  2.7937e-05  0:06:04 1310
   691  3.8495e-04  1.2584e-06  1.8778e-07  1.2313e-05  2.7850e-05  0:04:51 1309
   692  3.8822e-04  1.2529e-06  1.8757e-07  1.2205e-05  2.7755e-05  0:08:14 1308
   693  3.8577e-04  1.2480e-06  1.8668e-07  1.2093e-05  2.7653e-05  0:06:35 1307

  iter  continuity  x-velocity  y-velocity           k       omega     time/iter
   694  3.8355e-04  1.2425e-06  1.8630e-07  1.1985e-05  2.7567e-05  0:05:16 1306
   695  3.8327e-04  1.2390e-06  1.8543e-07  1.1872e-05  2.7474e-05  0:04:13 1305
   696  3.7675e-04  1.2344e-06  1.8488e-07  1.1745e-05  2.7388e-05  0:07:43 1304
   697  3.7224e-04  1.2298e-06  1.8366e-07  1.1629e-05  2.7304e-05  0:06:10 1303
   698  3.6982e-04  1.2251e-06  1.8290e-07  1.1515e-05  2.7213e-05  0:04:56 1302
   699  3.7003e-04  1.2207e-06  1.8219e-07  1.1410e-05  2.7122e-05  0:03:56 1301
   700  3.6897e-04  1.2173e-06  1.8103e-07  1.1306e-05  2.7034e-05  0:07:29 1300
   701  3.6757e-04  1.2126e-06  1.8095e-07  1.1210e-05  2.6940e-05  0:05:59 1299
   702  3.6222e-04  1.2073e-06  1.7983e-07  1.1111e-05  2.6850e-05  0:04:47 1298
   703  3.6193e-04  1.2022e-06  1.7918e-07  1.1008e-05  2.6753e-05  0:03:49 1297
   704  3.6236e-04  1.1976e-06  1.7807e-07  1.0912e-05  2.6662e-05  0:07:23 1296

  iter  continuity  x-velocity  y-velocity           k       omega     time/iter
   705  3.5949e-04  1.1937e-06  1.7704e-07  1.0821e-05  2.6570e-05  0:05:54 1295
   706  3.6008e-04  1.1894e-06  1.7583e-07  1.0731e-05  2.6472e-05  0:04:43 1294
   707  3.6005e-04  1.1859e-06  1.7514e-07  1.0639e-05  2.6379e-05  0:08:05 1293
   708  3.5762e-04  1.1817e-06  1.7431e-07  1.0557e-05  2.6285e-05  0:06:27 1292
   709  3.5644e-04  1.1775e-06  1.7420e-07  1.0475e-05  2.6189e-05  0:05:10 1291
   710  3.5691e-04  1.1734e-06  1.7330e-07  1.0405e-05  2.6092e-05  0:04:08 1290
   711  3.5599e-04  1.1701e-06  1.7285e-07  1.0338e-05  2.5996e-05  0:07:36 1289
   712  3.5471e-04  1.1657e-06  1.7230e-07  1.0274e-05  2.5899e-05  0:06:04 1288
   713  3.5384e-04  1.1615e-06  1.7210e-07  1.0207e-05  2.5803e-05  0:04:51 1287
   714  3.5159e-04  1.1571e-06  1.7183e-07  1.0153e-05  2.5706e-05  0:03:53 1286
   715  3.5616e-04  1.1531e-06  1.7158e-07  1.0096e-05  2.5607e-05  0:07:23 1285

  iter  continuity  x-velocity  y-velocity           k       omega     time/iter
   716  3.5446e-04  1.1485e-06  1.7102e-07  1.0046e-05  2.5509e-05  0:05:54 1284
   717  3.4857e-04  1.1445e-06  1.7060e-07  1.0006e-05  2.5410e-05  0:04:43 1283
   718  3.5027e-04  1.1405e-06  1.7011e-07  9.9536e-06  2.5311e-05  0:03:46 1282
   719  3.5018e-04  1.1364e-06  1.6850e-07  9.8879e-06  2.5215e-05  0:07:17 1281
   720  3.4825e-04  1.1327e-06  1.6920e-07  9.8345e-06  2.5117e-05  0:05:49 1280
   721  3.4533e-04  1.1290e-06  1.6688e-07  9.7766e-06  2.5019e-05  0:04:39 1279
   722  3.4845e-04  1.1262e-06  1.6797e-07  9.7319e-06  2.4921e-05  0:07:59 1278
   723  3.4435e-04  1.1222e-06  1.6510e-07  9.6758e-06  2.4821e-05  0:06:23 1277
   724  3.4735e-04  1.1194e-06  1.6667e-07  9.6268e-06  2.4717e-05  0:05:06 1276
   725  3.4750e-04  1.1162e-06  1.6512e-07  9.5855e-06  2.4624e-05  0:08:20 1275
[...]
  1818  1.5353e-04  1.5487e-07  3.6544e-08  1.2975e-06  1.6437e-07  0:00:53  182
  1819  1.5318e-04  1.5457e-07  3.6582e-08  1.2959e-06  1.6814e-07  0:00:42  181
  1820  1.5535e-04  1.5422e-07  3.6621e-08  1.2941e-06  1.6336e-07  0:01:09  180
  1821  1.5095e-04  1.5465e-07  3.6634e-08  1.2919e-06  1.6527e-07  0:00:55  179
  1822  1.5246e-04  1.5333e-07  3.6620e-08  1.2881e-06  1.6301e-07  0:00:44  178
  1823  1.5161e-04  1.5349e-07  3.6407e-08  1.2874e-06  1.6260e-07  0:01:10  177
  1824  1.5152e-04  1.5327e-07  3.6073e-08  1.2827e-06  1.6507e-07  0:00:56  176
  1825  1.5245e-04  1.5321e-07  3.6145e-08  1.2860e-06  1.6525e-07  0:00:45  175
  1826  1.5332e-04  1.5237e-07  3.5816e-08  1.2804e-06  1.6387e-07  0:00:35  174

  iter  continuity  x-velocity  y-velocity           k       omega     time/iter
  1827  1.5196e-04  1.5342e-07  3.6050e-08  1.2817e-06  1.6803e-07  0:01:03  173
  1828  1.5192e-04  1.5248e-07  3.6203e-08  1.2785e-06  1.6453e-07  0:00:50  172
  1829  1.5170e-04  1.5185e-07  3.6150e-08  1.2768e-06  1.6342e-07  0:00:40  171
  1830  1.5602e-04  1.5194e-07  3.6121e-08  1.2752e-06  1.6683e-07  0:01:06  170
  1831  1.5290e-04  1.5213e-07  3.6313e-08  1.2719e-06  1.6836e-07  0:00:52  169
  1832  1.5031e-04  1.5186e-07  3.6275e-08  1.2700e-06  1.6401e-07  0:00:41  168
  1833  1.5033e-04  1.5183e-07  3.6331e-08  1.2709e-06  1.6132e-07  0:01:06  167
  1834  1.5004e-04  1.5105e-07  3.6194e-08  1.2660e-06  1.6439e-07  0:00:53  166
  1835  1.5414e-04  1.5065e-07  3.6216e-08  1.2614e-06  1.6544e-07  0:00:42  165
  1836  1.5481e-04  1.5031e-07  3.5674e-08  1.2606e-06  1.6243e-07  0:01:06  164
  1837  1.5176e-04  1.5040e-07  3.5883e-08  1.2580e-06  1.6760e-07  0:00:53  163

  iter  continuity  x-velocity  y-velocity           k       omega     time/iter
  1838  1.5339e-04  1.5045e-07  3.5771e-08  1.2541e-06  1.6056e-07  0:00:42  162
  1839  1.5302e-04  1.4993e-07  3.5960e-08  1.2550e-06  1.6554e-07  0:01:05  161
  1840  1.5180e-04  1.4993e-07  3.5979e-08  1.2571e-06  1.5973e-07  0:00:52  160
  1841  1.5251e-04  1.4986e-07  3.5964e-08  1.2507e-06  1.6388e-07  0:00:41  159
  1842  1.5222e-04  1.4917e-07  3.5998e-08  1.2480e-06  1.6449e-07  0:01:04  158
  1843  1.5460e-04  1.4941e-07  3.6169e-08  1.2434e-06  1.6433e-07  0:00:51  157
  1844  1.5024e-04  1.4932e-07  3.5984e-08  1.2470e-06  1.6033e-07  0:00:41  156
  1845  1.5224e-04  1.4832e-07  3.5626e-08  1.2408e-06  1.6328e-07  0:00:32  155
  1846  1.5414e-04  1.4908e-07  3.5640e-08  1.2416e-06  1.6083e-07  0:00:57  154
  1847  1.5369e-04  1.4853e-07  3.5493e-08  1.2380e-06  1.6720e-07  0:00:45  153
  1848  1.5305e-04  1.4788e-07  3.5430e-08  1.2370e-06  1.6063e-07  0:00:36  152

  iter  continuity  x-velocity  y-velocity           k       omega     time/iter
  1849  1.5272e-04  1.4833e-07  3.5641e-08  1.2393e-06  1.6467e-07  0:00:59  151
  1850  1.5288e-04  1.4780e-07  3.5515e-08  1.2386e-06  1.5962e-07  0:00:47  150
  1851  1.5266e-04  1.4781e-07  3.5477e-08  1.2308e-06  1.6685e-07  0:00:37  149
  1852  1.5185e-04  1.4678e-07  3.5586e-08  1.2320e-06  1.6023e-07  0:00:59  148
  1853  1.5449e-04  1.4635e-07  3.5360e-08  1.2308e-06  1.6697e-07  0:00:47  147
  1854  1.5342e-04  1.4652e-07  3.5412e-08  1.2310e-06  1.6506e-07  0:00:37  146
  1855  1.5420e-04  1.4607e-07  3.5684e-08  1.2265e-06  1.6364e-07  0:00:30  145
  1856  1.5171e-04  1.4667e-07  3.5647e-08  1.2274e-06  1.6175e-07  0:00:52  144
  1857  1.5069e-04  1.4585e-07  3.5323e-08  1.2209e-06  1.6276e-07  0:00:42  143
  1858  1.5001e-04  1.4577e-07  3.4851e-08  1.2195e-06  1.5780e-07  0:00:33  142
  1859  1.5189e-04  1.4568e-07  3.4908e-08  1.2215e-06  1.6435e-07  0:00:54  141

  iter  continuity  x-velocity  y-velocity           k       omega     time/iter
  1860  1.5261e-04  1.4603e-07  3.5074e-08  1.2187e-06  1.5935e-07  0:00:43  140
  1861  1.5177e-04  1.4496e-07  3.4850e-08  1.2125e-06  1.6328e-07  0:00:34  139
  1862  1.5075e-04  1.4508e-07  3.4748e-08  1.2155e-06  1.5925e-07  0:00:55  138
  1863  1.5372e-04  1.4468e-07  3.4964e-08  1.2102e-06  1.6057e-07  0:00:44  137
  1864  1.5336e-04  1.4454e-07  3.4946e-08  1.2084e-06  1.5933e-07  0:00:35  136
  1865  1.5085e-04  1.4428e-07  3.4787e-08  1.2052e-06  1.6366e-07  0:00:27  135
  1866  1.5127e-04  1.4453e-07  3.4876e-08  1.2036e-06  1.6175e-07  0:00:49  134
  1867  1.5178e-04  1.4345e-07  3.4726e-08  1.2046e-06  1.5953e-07  0:00:39  133
  1868  1.4854e-04  1.4344e-07  3.4806e-08  1.2049e-06  1.6270e-07  0:00:31  132
  1869  1.5225e-04  1.4284e-07  3.4527e-08  1.2026e-06  1.6101e-07  0:00:51  131
  1870  1.5146e-04  1.4290e-07  3.4616e-08  1.1977e-06  1.6345e-07  0:00:40  130

  iter  continuity  x-velocity  y-velocity           k       omega     time/iter
  1871  1.5021e-04  1.4308e-07  3.4557e-08  1.1994e-06  1.6547e-07  0:00:32  129
  1872  1.5106e-04  1.4256e-07  3.4478e-08  1.1948e-06  1.6195e-07  0:00:51  128
  1873  1.5101e-04  1.4175e-07  3.4397e-08  1.1912e-06  1.6233e-07  0:00:40  127
  1874  1.5060e-04  1.4243e-07  3.4611e-08  1.1929e-06  1.6193e-07  0:00:32  126
  1875  1.4875e-04  1.4332e-07  3.4307e-08  1.1871e-06  1.6449e-07  0:00:25  125
  1876  1.5286e-04  1.4255e-07  3.4539e-08  1.1890e-06  1.6466e-07  0:00:45  124
  1877  1.5058e-04  1.4162e-07  3.4265e-08  1.1852e-06  1.6201e-07  0:00:36  123
  1878  1.5305e-04  1.4144e-07  3.4376e-08  1.1827e-06  1.6165e-07  0:00:53  122
  1879  1.4840e-04  1.4116e-07  3.3984e-08  1.1813e-06  1.6324e-07  0:00:42  121
  1880  1.4855e-04  1.4131e-07  3.4138e-08  1.1808e-06  1.6235e-07  0:00:33  120
  1881  1.5052e-04  1.4036e-07  3.4077e-08  1.1771e-06  1.6339e-07  0:00:50  119

  iter  continuity  x-velocity  y-velocity           k       omega     time/iter
  1882  1.5152e-04  1.4065e-07  3.4160e-08  1.1785e-06  1.6747e-07  0:00:40  118
  1883  1.5050e-04  1.3991e-07  3.4216e-08  1.1734e-06  1.6801e-07  0:00:32  117
  1884  1.5019e-04  1.4104e-07  3.4379e-08  1.1721e-06  1.6462e-07  0:00:25  116
  1885  1.4929e-04  1.4036e-07  3.4169e-08  1.1723e-06  1.6793e-07  0:00:43  115
  1886  1.5099e-04  1.3936e-07  3.4168e-08  1.1678e-06  1.6546e-07  0:00:34  114
  1887  1.5129e-04  1.3995e-07  3.4254e-08  1.1685e-06  1.6960e-07  0:00:27  113
  1888  1.5043e-04  1.3921e-07  3.4115e-08  1.1627e-06  1.6609e-07  0:00:44  112
  1889  1.4826e-04  1.3864e-07  3.4125e-08  1.1635e-06  1.6885e-07  0:00:35  111
  1890  1.5181e-04  1.3870e-07  3.3869e-08  1.1630e-06  1.7028e-07  0:00:28  110
  1891  1.5253e-04  1.3846e-07  3.4242e-08  1.1604e-06  1.7102e-07  0:00:44  109
  1892  1.5119e-04  1.3762e-07  3.4040e-08  1.1608e-06  1.6927e-07  0:00:35  108

  iter  continuity  x-velocity  y-velocity           k       omega     time/iter
  1893  1.5008e-04  1.3780e-07  3.3873e-08  1.1570e-06  1.7150e-07  0:00:27  107
  1894  1.5128e-04  1.3813e-07  3.4030e-08  1.1539e-06  1.7185e-07  0:00:43  106
  1895  1.5193e-04  1.3828e-07  3.3990e-08  1.1517e-06  1.7319e-07  0:00:34  105
  1896  1.5018e-04  1.3788e-07  3.3703e-08  1.1536e-06  1.7648e-07  0:00:27  104
  1897  1.5030e-04  1.3754e-07  3.3732e-08  1.1485e-06  1.7324e-07  0:00:21  103
  1898  1.5225e-04  1.3718e-07  3.3543e-08  1.1471e-06  1.7297e-07  0:00:37  102
  1899  1.4974e-04  1.3651e-07  3.3541e-08  1.1464e-06  1.7784e-07  0:00:30  101
  1900  1.5197e-04  1.3653e-07  3.3465e-08  1.1412e-06  1.7921e-07  0:00:23  100
  1901  1.5178e-04  1.3721e-07  3.3674e-08  1.1419e-06  1.7479e-07  0:00:38   99
  1902  1.5062e-04  1.3739e-07  3.3845e-08  1.1390e-06  1.7863e-07  0:00:30   98
  1903  1.5044e-04  1.3679e-07  3.3540e-08  1.1420e-06  1.7922e-07  0:00:24   97

  iter  continuity  x-velocity  y-velocity           k       omega     time/iter
  1904  1.5297e-04  1.3642e-07  3.3642e-08  1.1350e-06  1.7880e-07  0:00:38   96
  1905  1.5179e-04  1.3601e-07  3.3717e-08  1.1318e-06  1.7921e-07  0:00:30   95
  1906  1.5151e-04  1.3532e-07  3.3656e-08  1.1305e-06  1.8064e-07  0:00:24   94
  1907  1.4987e-04  1.3540e-07  3.3487e-08  1.1285e-06  1.8448e-07  0:00:19   93
  1908  1.4804e-04  1.3509e-07  3.3398e-08  1.1297e-06  1.8686e-07  0:00:33   92
  1909  1.4858e-04  1.3443e-07  3.3224e-08  1.1266e-06  1.9084e-07  0:00:26   91
  1910  1.4991e-04  1.3483e-07  3.2893e-08  1.1245e-06  1.8674e-07  0:00:21   90
  1911  1.5062e-04  1.3470e-07  3.3093e-08  1.1243e-06  1.9172e-07  0:00:34   89
  1912  1.5114e-04  1.3472e-07  3.3366e-08  1.1226e-06  1.9567e-07  0:00:27   88
  1913  1.5084e-04  1.3448e-07  3.3082e-08  1.1189e-06  1.9834e-07  0:00:21   87
  1914  1.5071e-04  1.3453e-07  3.3240e-08  1.1188e-06  1.9964e-07  0:00:17   86

  iter  continuity  x-velocity  y-velocity           k       omega     time/iter
  1915  1.5019e-04  1.3489e-07  3.3349e-08  1.1179e-06  2.0391e-07  0:00:30   85
  1916  1.5115e-04  1.3412e-07  3.3163e-08  1.1135e-06  2.0453e-07  0:00:24   84
  1917  1.5206e-04  1.3437e-07  3.3152e-08  1.1131e-06  2.0540e-07  0:00:19   83
  1918  1.4999e-04  1.3467e-07  3.3129e-08  1.1127e-06  2.0296e-07  0:00:31   82
  1919  1.5152e-04  1.3357e-07  3.2975e-08  1.1070e-06  2.0209e-07  0:00:25   81
  1920  1.4979e-04  1.3360e-07  3.3058e-08  1.1060e-06  2.0248e-07  0:00:36   80
  1921  1.4913e-04  1.3297e-07  3.3022e-08  1.1048e-06  2.0240e-07  0:00:28   79
  1922  1.5108e-04  1.3301e-07  3.2995e-08  1.1051e-06  2.0140e-07  0:00:22   78
  1923  1.4916e-04  1.3218e-07  3.3137e-08  1.0993e-06  2.0045e-07  0:00:33   77
  1924  1.4998e-04  1.3237e-07  3.2813e-08  1.1020e-06  1.9787e-07  0:00:26   76
  1925  1.5117e-04  1.3268e-07  3.2711e-08  1.0995e-06  2.0146e-07  0:00:21   75

  iter  continuity  x-velocity  y-velocity           k       omega     time/iter
  1926  1.4896e-04  1.3222e-07  3.2680e-08  1.1003e-06  2.0266e-07  0:00:31   74
  1927  1.5019e-04  1.3219e-07  3.2427e-08  1.0995e-06  2.0349e-07  0:00:24   73
  1928  1.5066e-04  1.3128e-07  3.2659e-08  1.0928e-06  1.9700e-07  0:00:19   72
  1929  1.4871e-04  1.3222e-07  3.2718e-08  1.0922e-06  2.0094e-07  0:00:15   71
  1930  1.4768e-04  1.3130e-07  3.2467e-08  1.0900e-06  1.9873e-07  0:00:26   70
  1931  1.4741e-04  1.3045e-07  3.2313e-08  1.0859e-06  2.0237e-07  0:00:21   69
  1932  1.4925e-04  1.3159e-07  3.2488e-08  1.0886e-06  1.9803e-07  0:00:16   68
  1933  1.4671e-04  1.3088e-07  3.2635e-08  1.0852e-06  1.9884e-07  0:00:26   67
  1934  1.4827e-04  1.3067e-07  3.2287e-08  1.0823e-06  1.9671e-07  0:00:21   66
  1935  1.4967e-04  1.3018e-07  3.2318e-08  1.0793e-06  2.0193e-07  0:00:16   65
  1936  1.4544e-04  1.3040e-07  3.2359e-08  1.0775e-06  1.9866e-07  0:00:26   64

  iter  continuity  x-velocity  y-velocity           k       omega     time/iter
  1937  1.5001e-04  1.2977e-07  3.2474e-08  1.0770e-06  2.0009e-07  0:00:20   63
  1938  1.4877e-04  1.2972e-07  3.2665e-08  1.0781e-06  1.9987e-07  0:00:16   62
  1939  1.4794e-04  1.2973e-07  3.2253e-08  1.0737e-06  2.0121e-07  0:00:12   61
  1940  1.5006e-04  1.3028e-07  3.2419e-08  1.0692e-06  2.0055e-07  0:00:22   60
  1941  1.4771e-04  1.3007e-07  3.2494e-08  1.0644e-06  2.0059e-07  0:00:17   59
  1942  1.4998e-04  1.2845e-07  3.2307e-08  1.0642e-06  2.0080e-07  0:00:14   58
  1943  1.4967e-04  1.2899e-07  3.2703e-08  1.0643e-06  1.9935e-07  0:00:22   57
  1944  1.4944e-04  1.2860e-07  3.2318e-08  1.0643e-06  1.9889e-07  0:00:17   56
  1945  1.5071e-04  1.2828e-07  3.2130e-08  1.0605e-06  1.9894e-07  0:00:14   55
  1946  1.4933e-04  1.2894e-07  3.2439e-08  1.0586e-06  1.9853e-07  0:00:21   54
  1947  1.4657e-04  1.2844e-07  3.2354e-08  1.0564e-06  1.9788e-07  0:00:17   53

  iter  continuity  x-velocity  y-velocity           k       omega     time/iter
  1948  1.4792e-04  1.2741e-07  3.1888e-08  1.0538e-06  1.9604e-07  0:00:13   52
  1949  1.4874e-04  1.2761e-07  3.2188e-08  1.0498e-06  1.9828e-07  0:00:10   51
  1950  1.4992e-04  1.2798e-07  3.2309e-08  1.0489e-06  1.9476e-07  0:00:18   50
  1951  1.5080e-04  1.2781e-07  3.2078e-08  1.0459e-06  1.9604e-07  0:00:14   49
  1952  1.5043e-04  1.2717e-07  3.2332e-08  1.0485e-06  1.9577e-07  0:00:11   48
  1953  1.4959e-04  1.2655e-07  3.2538e-08  1.0437e-06  1.9399e-07  0:00:18   47
  1954  1.5118e-04  1.2731e-07  3.2334e-08  1.0412e-06  1.9721e-07  0:00:14   46
  1955  1.4608e-04  1.2702e-07  3.2102e-08  1.0393e-06  1.9802e-07  0:00:11   45
  1956  1.4789e-04  1.2579e-07  3.2047e-08  1.0413e-06  1.9664e-07  0:00:17   44
  1957  1.4862e-04  1.2503e-07  3.1874e-08  1.0368e-06  1.9792e-07  0:00:14   43
  1958  1.4940e-04  1.2633e-07  3.1984e-08  1.0352e-06  1.9433e-07  0:00:11   42

  iter  continuity  x-velocity  y-velocity           k       omega     time/iter
  1959  1.4929e-04  1.2601e-07  3.1924e-08  1.0295e-06  1.9745e-07  0:00:08   41
  1960  1.4761e-04  1.2568e-07  3.1573e-08  1.0287e-06  1.9657e-07  0:00:15   40
  1961  1.4717e-04  1.2569e-07  3.1615e-08  1.0302e-06  2.0074e-07  0:00:11   39
  1962  1.4634e-04  1.2522e-07  3.1680e-08  1.0295e-06  1.9833e-07  0:00:09   38
  1963  1.4766e-04  1.2483e-07  3.1492e-08  1.0247e-06  1.9274e-07  0:00:14   37
  1964  1.4959e-04  1.2562e-07  3.1645e-08  1.0230e-06  1.9534e-07  0:00:11   36
  1965  1.4857e-04  1.2513e-07  3.1703e-08  1.0199e-06  1.9895e-07  0:00:16   35
  1966  1.4705e-04  1.2510e-07  3.1377e-08  1.0170e-06  1.9391e-07  0:00:12   34
  1967  1.4763e-04  1.2451e-07  3.1255e-08  1.0151e-06  1.9523e-07  0:00:09   33
  1968  1.4555e-04  1.2521e-07  3.1220e-08  1.0150e-06  1.9289e-07  0:00:07   32
  1969  1.4850e-04  1.2364e-07  3.1307e-08  1.0153e-06  1.9672e-07  0:00:12   31

  iter  continuity  x-velocity  y-velocity           k       omega     time/iter
  1970  1.4910e-04  1.2358e-07  3.1071e-08  1.0155e-06  1.9800e-07  0:00:09   30
  1971  1.4822e-04  1.2408e-07  3.1106e-08  1.0101e-06  1.9350e-07  0:00:07   29
  1972  1.4862e-04  1.2405e-07  3.0945e-08  1.0106e-06  1.9549e-07  0:00:11   28
  1973  1.4820e-04  1.2346e-07  3.1146e-08  1.0077e-06  1.9513e-07  0:00:09   27
  1974  1.4842e-04  1.2368e-07  3.1134e-08  1.0067e-06  1.9927e-07  0:00:07   26
  1975  1.4971e-04  1.2265e-07  3.1089e-08  1.0038e-06  1.9425e-07  0:00:10   25
  1976  1.4727e-04  1.2297e-07  3.1052e-08  1.0016e-06  1.9505e-07  0:00:08   24
  1977  1.4736e-04  1.2266e-07  3.0835e-08  1.0003e-06  1.9475e-07  0:00:06   23
  1978  1.4652e-04  1.2241e-07  3.1081e-08  9.9838e-07  1.9061e-07  0:00:05   22
  1979  1.4686e-04  1.2206e-07  3.0936e-08  9.9606e-07  1.9711e-07  0:00:08   21
  1980  1.4806e-04  1.2313e-07  3.1013e-08  9.9544e-07  1.9318e-07  0:00:06   20

  iter  continuity  x-velocity  y-velocity           k       omega     time/iter
  1981  1.4856e-04  1.2189e-07  3.1133e-08  9.9209e-07  1.9584e-07  0:00:04   19
  1982  1.4641e-04  1.2270e-07  3.0922e-08  9.9328e-07  1.9349e-07  0:00:07   18
  1983  1.4829e-04  1.2214e-07  3.0732e-08  9.8951e-07  1.9612e-07  0:00:05   17
  1984  1.4761e-04  1.2231e-07  3.0769e-08  9.8758e-07  1.9147e-07  0:00:04   16
  1985  1.4755e-04  1.2186e-07  3.0827e-08  9.8844e-07  1.9401e-07  0:00:06   15
  1986  1.4724e-04  1.2196e-07  3.0878e-08  9.8361e-07  1.9100e-07  0:00:04   14
  1987  1.4791e-04  1.2124e-07  3.0930e-08  9.8338e-07  1.9304e-07  0:00:03   13
  1988  1.4784e-04  1.2142e-07  3.0920e-08  9.8176e-07  1.9010e-07  0:00:02   12
  1989  1.4745e-04  1.2048e-07  3.0954e-08  9.7773e-07  1.9038e-07  0:00:04   11
  1990  1.4834e-04  1.2007e-07  3.0936e-08  9.8220e-07  1.9304e-07  0:00:03   10
  1991  1.4710e-04  1.2047e-07  3.1065e-08  9.7861e-07  1.9304e-07  0:00:02    9

  iter  continuity  x-velocity  y-velocity           k       omega     time/iter
  1992  1.4833e-04  1.2036e-07  3.0905e-08  9.7565e-07  1.9151e-07  0:00:03    8
  1993  1.4883e-04  1.1992e-07  3.0914e-08  9.7510e-07  1.9309e-07  0:00:02    7
  1994  1.4797e-04  1.2057e-07  3.0897e-08  9.7301e-07  1.8990e-07  0:00:01    6
  1995  1.4942e-04  1.1999e-07  3.0809e-08  9.7021e-07  1.9193e-07  0:00:02    5
  1996  1.4781e-04  1.2054e-07  3.0744e-08  9.7162e-07  1.8631e-07  0:00:01    4
  1997  1.4781e-04  1.2004e-07  3.0551e-08  9.6592e-07  1.8845e-07  0:00:01    3
  1998  1.4587e-04  1.1988e-07  3.0533e-08  9.6636e-07  1.8972e-07  0:00:00    2
  1999  1.4710e-04  1.1884e-07  3.0601e-08  9.6435e-07  1.9167e-07  0:00:00    1
  2000  1.4551e-04  1.1867e-07  3.0159e-08  9.6028e-07  1.8755e-07  0:00:00    0

> 
adjoint/                parallel/               server/
define/                 parametric-study/       solve/
display/                plot/                   surface/
exit                    preferences/            views/
file/                   print-license-usage
mesh/                   report/

> ;create rakes
surface/rake-surface cv_inlet -0.005 -0.065 -0.005 0.065 1000

> surface/rake-surface cv_outlet 1.005 -0.065 1.005 0.065 1000

> surface/rake-surface cv_top -0.005 0.065 1.005 0.065 1000

> surface/rake-surface cv_bottom -0.005 -0.065 1.005 -0.065 1000

> surface/point-surface free-stream -15 0

> 
adjoint/                parallel/               server/
define/                 parametric-study/       solve/
display/                plot/                   surface/
exit                    preferences/            views/
file/                   print-license-usage
mesh/                   report/

> ;export data
file/export/ascii NP_CVinlet_data cv_inlet () no pressure x-velocity y-velocity dx-velocity-dx dx-velocity-dy dy-velocity-dx dy-velocity-dy q no 
Writing "NP_CVinlet_data"...

Writing information to ascii file ...
Done.

ok


Overwrite confirmations (/file/set-batch-options ...)
are on -- will therefore ignore the following journal
Error: invalid command: ok


> file/export/ascii NP_CVoutlet_data cv_outlet () no pressure x-velocity y-velocity dx-velocity-dx dx-velocity-dy dy-velocity-dx dy-velocity-dy q no 
Writing "NP_CVoutlet_data"...

Writing information to ascii file ...
Done.

ok


Overwrite confirmations (/file/set-batch-options ...)
are on -- will therefore ignore the following journal
Error: invalid command: ok


> file/export/ascii NP_CVtop_data cv_top () no pressure x-velocity y-velocity dx-velocity-dx dx-velocity-dy dy-velocity-dx dy-velocity-dy q no 
Writing "NP_CVtop_data"...

Writing information to ascii file ...
Done.

ok


Overwrite confirmations (/file/set-batch-options ...)
are on -- will therefore ignore the following journal
Error: invalid command: ok


> file/export/ascii NP_CVbottom_data cv_bottom () no pressure x-velocity y-velocity dx-velocity-dx dx-velocity-dy dy-velocity-dx dy-velocity-dy q no 
Writing "NP_CVbottom_data"...

Writing information to ascii file ...
Done.

ok


Overwrite confirmations (/file/set-batch-options ...)
are on -- will therefore ignore the following journal
Error: invalid command: ok


> file/export/ascii air_properties free-stream () no density viscosity-lam q no 
Writing "air_properties"...

Writing information to ascii file ...
Done.

ok


Overwrite confirmations (/file/set-batch-options ...)
are on -- will therefore ignore the following journal
Error: invalid command: ok


> 
adjoint/                parallel/               server/
define/                 parametric-study/       solve/
display/                plot/                   surface/
exit                    preferences/            views/
file/                   print-license-usage
mesh/                   report/

> ;flag file to know when simulation is over
file/export/ascii flag_file free-stream () no pressure q no 
Writing "flag_file"...

Writing information to ascii file ...
Done.

ok


Overwrite confirmations (/file/set-batch-options ...)
are on -- will therefore ignore the following journal
Error: invalid command: ok


> /exit ok

Posting ANSYS Product Improvement Program performance data 
Done.
Auto-Transcript Stop Time:  21:37:54, 20 Jul 2025 GMT Summer Time 
Total Transcript Time: 16 Minute 17 Second.
