Auto-Transcript Start Time:  21:19:59, 20 Jul 2025 GMT Summer Time 
Current Directory: "C:\Users\V.Chepuri\OneDrive - Cranfield University\irp\pablo\re_200000\AOA_2"

              Welcome to ANSYS Fluent 2024 R2

              Copyright 1987-2024 ANSYS, Inc. All Rights Reserved.
              Unauthorized use, distribution or duplication is prohibited.
              This product is subject to U.S. laws governing export and re-export.
              For full Legal Notice, see documentation.

Build Time: May 13 2024 11:17:42 EST  Build Id: 10192  
 
Connected License Server List:	1055@cclic-2.central.cranfield.ac.uk

*********************************************
Info: Your license enables 4-way parallel execution.
For faster simulations, please start the application with the appropriate parallel options.
*********************************************


     --------------------------------------------------------------
     This is an academic version of ANSYS FLUENT. Usage of this product
     license is limited to the terms and conditions specified in your ANSYS
     license form, additional terms section.
     --------------------------------------------------------------
Host spawning Node 0 on machine "37PCL051" (win64).

-------------------------------------------------------------------------------
ID    Hostname  Core  O.S.         PID    Vendor                          
-------------------------------------------------------------------------------
n0    37PCL051  1/28  Windows-x64  11620  Intel(R) Core(TM) i7-14700      
host  37PCL051        Windows-x64  9628   Intel(R) Core(TM) i7-14700      

MPI Option Selected: intel
-------------------------------------------------------------------------------

Cleanup script file is C:\\Users\\V.Chepuri\\OneDrive - Cranfield University\\irp\\pablo\\re_200000\\AOA_2\\cleanup-fluent-37PCL051-9628.bat

Posting ANSYS Product Improvement Program startup data
Done.

> (cx-gui-do cx-activate-item "Key Behavioral Changes*PanelButtons*PushButton1(OK)")
(cx-gui-do cx-activate-item "MenuBar*ReadSubMenu*Case...")
(cx-gui-do cx-set-file-dialog-entries "Select File" '( "template_medium.cas.h5") "CFF Case Files (*.cas.h5 *.msh.h5 *.MSH.h5 )")
Fast-loading "C:\PROGRA~1\ANSYSI~1\v242\fluent\fluent24.2.0\\addons\afd\lib\hdfio.bin"
Done.

37PCL051 has other FLUENT parallel processes running.                       Process affinity not being set.

Reading from 37PCL051:"C:/Users/V.Chepuri/OneDrive - Cranfield University/irp/pablo/re_200000/AOA_2/template_medium.cas.h5" in NODE0 mode ...
  Reading mesh ...
      181070 cells,     4 cell zones ...
          36824 mixed cells,  zone id: 2
         108032 mixed cells,  zone id: 4
          27008 mixed cells,  zone id: 12
           9206 mixed cells,  zone id: 11
      309160 faces,    14 face zones ...
          65137 2D interior faces,  zone id: 3
         181145 2D interior faces,  zone id: 5
             42 2D velocity-inlet faces,  zone id: 6
             38 2D pressure-outlet faces,  zone id: 7
             40 2D velocity-inlet faces,  zone id: 8
            458 2D interior faces,  zone id: 9
            456 2D interior faces,  zone id: 10
            228 2D parent-face faces,  zone id: 19
            229 2D parent-face faces,  zone id: 18
             20 2D parent-face faces,  zone id: 17
             19 2D parent-face faces,  zone id: 16
             21 2D parent-face faces,  zone id: 15
          45157 2D parent-face faces,  zone id: 14
          16170 2D parent-face faces,  zone id: 13
      102461 nodes,     1 node zone  ...
  Done.


Building...
     mesh
     materials,
     interface,
     domains,
	mixture
     zones,
	outlet
	inlet
	interior-fluid
	interior-porous
	symmetry
	upper
	lower
	fluid
	porous
WARNING: "Smooth" contours can't be displayed when node-values is set to off. Changing the Coloring type to "Banded".
     parallel,
Done.
(cx-gui-do cx-set-list-tree-selections "NavigationPane*Frame2*Table1*List_Tree2" (list "Setup|Boundary Conditions|Inlet|inlet (velocity-inlet, id=6)"))
(cx-gui-do cx-set-list-tree-selections "NavigationPane*Frame2*Table1*List_Tree2" (list "Setup|Boundary Conditions|Inlet|inlet (velocity-inlet, id=6)"))
(cx-gui-do cx-activate-item "NavigationPane*Frame2*Table1*List_Tree2")
(cx-gui-do cx-set-list-tree-selections "NavigationPane*Frame2*Table1*List_Tree2" (list "Setup|Boundary Conditions|Inlet|inlet (velocity-inlet, id=6)"))
(cx-gui-do cx-activate-tab-index "Velocity Inlet*Frame2*Frame2" 0)
(cx-gui-do cx-activate-tab-index "Velocity Inlet*Frame2*Frame2" 1)
(cx-gui-do cx-activate-tab-index "Velocity Inlet*Frame2*Frame2" 0)
(cx-gui-do cx-activate-tab-index "Velocity Inlet*Frame2*Frame2" 2)
(cx-gui-do cx-activate-tab-index "Velocity Inlet*Frame2*Frame2" 0)
(cx-gui-do cx-activate-tab-index "Velocity Inlet*Frame2*Frame2" 3)
(cx-gui-do cx-activate-tab-index "Velocity Inlet*Frame2*Frame2" 0)
(cx-gui-do cx-activate-tab-index "Velocity Inlet*Frame2*Frame2" 4)
(cx-gui-do cx-activate-tab-index "Velocity Inlet*Frame2*Frame2" 0)
(cx-gui-do cx-activate-tab-index "Velocity Inlet*Frame2*Frame2" 5)
(cx-gui-do cx-activate-tab-index "Velocity Inlet*Frame2*Frame2" 0)
(cx-gui-do cx-activate-tab-index "Velocity Inlet*Frame2*Frame2" 6)
(cx-gui-do cx-activate-tab-index "Velocity Inlet*Frame2*Frame2" 0)
(cx-gui-do cx-activate-tab-index "Velocity Inlet*Frame2*Frame2" 7)
(cx-gui-do cx-activate-tab-index "Velocity Inlet*Frame2*Frame2" 0)
(cx-gui-do cx-activate-tab-index "Velocity Inlet*Frame2*Frame2" 8)
(cx-gui-do cx-activate-tab-index "Velocity Inlet*Frame2*Frame2" 0)
(cx-gui-do cx-set-list-tree-selections "NavigationPane*Frame2*Table1*List_Tree2" (list "Setup|Boundary Conditions|Inlet|symmetry (velocity-inlet, id=8)"))
(cx-gui-do cx-set-list-tree-selections "NavigationPane*Frame2*Table1*List_Tree2" (list "Setup|Boundary Conditions|Inlet|symmetry (velocity-inlet, id=8)"))
(cx-gui-do cx-activate-item "NavigationPane*Frame2*Table1*List_Tree2")
(cx-gui-do cx-set-list-tree-selections "NavigationPane*Frame2*Table1*List_Tree2" (list "Setup|Boundary Conditions|Inlet|symmetry (velocity-inlet, id=8)"))
(cx-gui-do cx-activate-tab-index "Velocity Inlet*Frame2*Frame2" 0)
(cx-gui-do cx-activate-tab-index "Velocity Inlet*Frame2*Frame2" 1)
(cx-gui-do cx-activate-tab-index "Velocity Inlet*Frame2*Frame2" 0)
(cx-gui-do cx-activate-tab-index "Velocity Inlet*Frame2*Frame2" 2)
(cx-gui-do cx-activate-tab-index "Velocity Inlet*Frame2*Frame2" 0)
(cx-gui-do cx-activate-tab-index "Velocity Inlet*Frame2*Frame2" 3)
(cx-gui-do cx-activate-tab-index "Velocity Inlet*Frame2*Frame2" 0)
(cx-gui-do cx-activate-tab-index "Velocity Inlet*Frame2*Frame2" 4)
(cx-gui-do cx-activate-tab-index "Velocity Inlet*Frame2*Frame2" 0)
(cx-gui-do cx-activate-tab-index "Velocity Inlet*Frame2*Frame2" 5)
(cx-gui-do cx-activate-tab-index "Velocity Inlet*Frame2*Frame2" 0)
(cx-gui-do cx-activate-tab-index "Velocity Inlet*Frame2*Frame2" 6)
(cx-gui-do cx-activate-tab-index "Velocity Inlet*Frame2*Frame2" 0)
(cx-gui-do cx-activate-tab-index "Velocity Inlet*Frame2*Frame2" 7)
(cx-gui-do cx-activate-tab-index "Velocity Inlet*Frame2*Frame2" 0)
(cx-gui-do cx-activate-tab-index "Velocity Inlet*Frame2*Frame2" 8)
(cx-gui-do cx-activate-tab-index "Velocity Inlet*Frame2*Frame2" 0)
(cx-gui-do cx-enable-apply-button "Velocity Inlet")
(cx-gui-do cx-set-expression-entry "Velocity Inlet*Frame2*Frame2*Frame1(Momentum)*Table1*Table17*ExpressionEntry1(X-Velocity)" '("0.99939083" . 0))
(cx-gui-do cx-set-expression-entry "Velocity Inlet*Frame2*Frame2*Frame1(Momentum)*Table1*Table18*ExpressionEntry1(Y-Velocity)" '("0.0698" . 0))
(cx-gui-do cx-set-expression-entry "Velocity Inlet*Frame2*Frame2*Frame1(Momentum)*Table1*Table18*ExpressionEntry1(Y-Velocity)" '("0.0348995" . 0))
(cx-gui-do cx-enable-apply-button "Velocity Inlet")
(cx-gui-do cx-set-expression-entry "Velocity Inlet*Frame2*Frame2*Frame1(Momentum)*Table1*Table18*ExpressionEntry1(Y-Velocity)" '("0.0348995" . 0))
(cx-gui-do cx-set-expression-entry "Velocity Inlet*Frame2*Frame2*Frame1(Momentum)*Table1*Table17*ExpressionEntry1(X-Velocity)" '("0.99939083" . 0))
(cx-gui-do cx-activate-item "Velocity Inlet*PanelButtons*PushButton1(OK)")
(cx-gui-do cx-activate-item "Velocity Inlet*PanelButtons*PushButton2(Cancel)")
(cx-gui-do cx-activate-item "Velocity Inlet*PanelButtons*PushButton1(OK)")
(cx-gui-do cx-activate-item "Velocity Inlet*PanelButtons*PushButton2(Cancel)")
(cx-gui-do cx-set-list-tree-selections "NavigationPane*Frame2*Table1*List_Tree2" (list "Setup|Boundary Conditions|Inlet|inlet (velocity-inlet, id=6)"))
(cx-gui-do cx-set-list-tree-selections "NavigationPane*Frame2*Table1*List_Tree2" (list "Setup|Boundary Conditions|Inlet|inlet (velocity-inlet, id=6)"))
(cx-gui-do cx-activate-item "NavigationPane*Frame2*Table1*List_Tree2")
(cx-gui-do cx-set-list-tree-selections "NavigationPane*Frame2*Table1*List_Tree2" (list "Setup|Boundary Conditions|Inlet|inlet (velocity-inlet, id=6)"))
(cx-gui-do cx-set-list-tree-selections "NavigationPane*Frame2*Table1*List_Tree2" (list "Setup|Boundary Conditions|Inlet|symmetry (velocity-inlet, id=8)"))
(cx-gui-do cx-set-list-tree-selections "NavigationPane*Frame2*Table1*List_Tree2" (list "Setup|Boundary Conditions|Inlet|symmetry (velocity-inlet, id=8)"))
(cx-gui-do cx-activate-item "NavigationPane*Frame2*Table1*List_Tree2")
(cx-gui-do cx-set-list-tree-selections "NavigationPane*Frame2*Table1*List_Tree2" (list "Setup|Boundary Conditions|Inlet|symmetry (velocity-inlet, id=8)"))
(cx-gui-do cx-activate-item "Velocity Inlet*PanelButtons*PushButton1(OK)")
(cx-gui-do cx-activate-item "Velocity Inlet*PanelButtons*PushButton2(Cancel)")
(cx-gui-do cx-activate-item "Velocity Inlet*PanelButtons*PushButton1(OK)")
(cx-gui-do cx-activate-item "Velocity Inlet*PanelButtons*PushButton2(Cancel)")
(cx-gui-do cx-activate-item "MenuBar*WriteSubMenu*Case...")
(cx-gui-do cx-set-file-dialog-entries "Select File" '( "template_medium.cas.h5") "CFF Case Files (*.cas.h5 )")
(cx-gui-do cx-activate-item "Question*OK")

Writing to 37PCL051:"C:/Users/V.Chepuri/OneDrive - Cranfield University/irp/pablo/re_200000/AOA_2/template_medium.cas.h5" in NODE0 mode and compression level 1 ...
Grouping cells for Laplace smoothing ...
      181070 cells,     4 zones ...
      309160 faces,    14 zones ...
      102461 nodes,     1 zone  ...
  Done.
Done.
(cx-gui-do cx-activate-item "MenuBar*ReadSubMenu*Journal...")

Reading journal file C:/Users/V.Chepuri/OneDrive - Cranfield University/irp/pablo/re_200000/AOA_2/template.jou...

> ;change to correct dir

file/read-case template_medium.cas.h5 
37PCL051 has other FLUENT parallel processes running.                       Process affinity not being set.

       Clearing partially read grid.

Reading from 37PCL051:"C:\Users\V.Chepuri\OneDrive - Cranfield University\irp\pablo\re_200000\AOA_2\template_medium.cas.h5" in NODE0 mode ...
  Reading mesh ...
      181070 cells,     4 cell zones ...
          36824 mixed cells,  zone id: 2
         108032 mixed cells,  zone id: 4
          27008 mixed cells,  zone id: 12
           9206 mixed cells,  zone id: 11
      309160 faces,    14 face zones ...
          65137 2D interior faces,  zone id: 3
         181145 2D interior faces,  zone id: 5
             42 2D velocity-inlet faces,  zone id: 6
             38 2D pressure-outlet faces,  zone id: 7
             40 2D velocity-inlet faces,  zone id: 8
            458 2D interior faces,  zone id: 9
            456 2D interior faces,  zone id: 10
            228 2D parent-face faces,  zone id: 19
            229 2D parent-face faces,  zone id: 18
             20 2D parent-face faces,  zone id: 17
             19 2D parent-face faces,  zone id: 16
             21 2D parent-face faces,  zone id: 15
          45157 2D parent-face faces,  zone id: 14
          16170 2D parent-face faces,  zone id: 13
      102461 nodes,     1 node zone  ...
  Done.


Building...
     mesh
     materials,
     interface,
     domains,
	mixture
     zones,
	outlet
	inlet
	interior-fluid
	interior-porous
	symmetry
	upper
	lower
	fluid
	porous
WARNING: "Smooth" contours can't be displayed when node-values is set to off. Changing the Coloring type to "Banded".
     parallel,
Done.
OK


Overwrite confirmations (/file/set-batch-options ...)
are on -- will therefore ignore the following journal
Error: invalid command: OK


> 
adjoint/                parallel/               server/
define/                 parametric-study/       solve/
display/                plot/                   surface/
exit                    preferences/            views/
file/                   print-license-usage
mesh/                   report/

> ;modify permeability parameters
define/named-expressions/edit a definition " 0.0 " q q q

> define/named-expressions/edit b definition " 0.0 " q q q

> define/named-expressions/edit c definition " 0.0 " q q q

> define/named-expressions/edit d definition " 0.0 " q q q

> define/named-expressions/edit e1 definition " -5.0 " q q q

> define/named-expressions/edit a2 definition " 0.0 " q q q

> define/named-expressions/edit b2 definition " 0.0 " q q q

> define/named-expressions/edit c2 definition " 0.0 " q q q

> define/named-expressions/edit d2 definition " 0.0 " q q q

> define/named-expressions/edit e2 definition " -5.0 " q q q

> 
adjoint/                parallel/               server/
define/                 parametric-study/       solve/
display/                plot/                   surface/
exit                    preferences/            views/
file/                   print-license-usage
mesh/                   report/

> ;run simulation
solve/initialize/hyb-initialization 
Initialize using the hybrid initialization method.

Checking case topology... 
-This case has both inlets & outlets 
-Pressure information is not available at the boundaries.
 Case will be initialized with constant pressure

	iter		scalar-0

	1		1.000000e+00
	2		1.278945e-05
	3		9.742810e-07
	4		3.387862e-07
	5		6.014871e-08
	6		3.751572e-08
	7		3.610787e-08
	8		3.428723e-08
	9		3.139693e-08
	10		3.278928e-08

Hybrid initialization is done.


> solve/iterate 2000

  iter  continuity  x-velocity  y-velocity           k       omega     time/iter
     1  1.0000e+00  3.5222e-04  2.2278e-03  5.2438e-01  3.1123e-01  0:00:00 1999
     2  1.0000e+00  6.8003e-04  1.1530e-03  3.5745e-01  2.6679e-01  0:33:18 1998
     3  6.0099e-01  4.2694e-04  5.6601e-04  1.9053e-01  2.1258e-01  0:26:38 1997
     4  4.3639e-01  2.9379e-04  3.3749e-04  9.1519e-02  1.5697e-01  0:27:57 1996
     5  3.4260e-01  2.1901e-04  2.4635e-04  4.9366e-02  1.1027e-01  0:22:21 1995
     6  2.6466e-01  1.8376e-04  2.1089e-04  3.2348e-02  7.5732e-02  0:17:52 1994
     7  1.9912e-01  1.4910e-04  1.7737e-04  2.4202e-02  5.2843e-02  0:14:17 1993
     8  1.5455e-01  1.2265e-04  1.5223e-04  1.9428e-02  3.8538e-02  0:11:25 1992
     9  1.1754e-01  1.0668e-04  1.3245e-04  1.6146e-02  2.9379e-02  0:15:46 1991
    10  8.8177e-02  9.5277e-05  1.2023e-04  1.3746e-02  2.3294e-02  0:12:37 1990
    11  6.6769e-02  8.6395e-05  1.0939e-04  1.1934e-02  1.9065e-02  0:10:05 1989

  iter  continuity  x-velocity  y-velocity           k       omega     time/iter
    12  5.0928e-02  7.9473e-05  1.0108e-04  1.0534e-02  1.6021e-02  0:08:04 1988
    13  4.0077e-02  7.3148e-05  9.5053e-05  9.4057e-03  1.3747e-02  0:06:27 1987
    14  3.3146e-02  6.8987e-05  8.8724e-05  8.4420e-03  1.1843e-02  0:11:46 1986
    15  2.6669e-02  6.4214e-05  8.3710e-05  7.6482e-03  1.0357e-02  0:09:25 1985
    16  2.2269e-02  6.0572e-05  7.9215e-05  6.9882e-03  9.1723e-03  0:07:32 1984
    17  1.9115e-02  5.7301e-05  7.5046e-05  6.4254e-03  8.2095e-03  0:06:01 1983
    18  1.6837e-02  5.4480e-05  7.1225e-05  5.9326e-03  7.4137e-03  0:04:49 1982
    19  1.5088e-02  5.1958e-05  6.7656e-05  5.5033e-03  6.7473e-03  0:10:27 1981
    20  1.3683e-02  4.9676e-05  6.4273e-05  5.1261e-03  6.1815e-03  0:08:21 1980
    21  1.2516e-02  4.7765e-05  6.1099e-05  4.7936e-03  5.6955e-03  0:06:41 1979
    22  1.1467e-02  4.5790e-05  5.8135e-05  4.4982e-03  5.2744e-03  0:05:21 1978

  iter  continuity  x-velocity  y-velocity           k       omega     time/iter
    23  1.0619e-02  4.4215e-05  5.5293e-05  4.2343e-03  4.9066e-03  0:04:16 1977
    24  9.9352e-03  4.2589e-05  5.2626e-05  4.0004e-03  4.5829e-03  0:10:00 1976
    25  9.3501e-03  4.1271e-05  5.0051e-05  3.7887e-03  4.2957e-03  0:08:00 1975
    26  8.7977e-03  3.9852e-05  4.7659e-05  3.5970e-03  4.0399e-03  0:06:24 1974
    27  8.3887e-03  3.8737e-05  4.5328e-05  3.4233e-03  3.8105e-03  0:05:07 1973
    28  7.9214e-03  3.7504e-05  4.3175e-05  3.2655e-03  3.6033e-03  0:04:05 1972
    29  7.6218e-03  3.6518e-05  4.1083e-05  3.1218e-03  3.4158e-03  0:09:50 1971
    30  7.3209e-03  3.5584e-05  3.9088e-05  2.9902e-03  3.2456e-03  0:07:52 1970
    31  7.0471e-03  3.4716e-05  3.7204e-05  2.8684e-03  3.0905e-03  0:06:17 1969
    32  6.7865e-03  3.3885e-05  3.5425e-05  2.7554e-03  2.9489e-03  0:05:02 1968
    33  6.4943e-03  3.3120e-05  3.3730e-05  2.6502e-03  2.8189e-03  0:04:01 1967

  iter  continuity  x-velocity  y-velocity           k       omega     time/iter
    34  6.2383e-03  3.2419e-05  3.2108e-05  2.5522e-03  2.6994e-03  0:03:13 1966
    35  6.0529e-03  3.1801e-05  3.0583e-05  2.4609e-03  2.5893e-03  0:09:07 1965
    36  5.8816e-03  3.1192e-05  2.9123e-05  2.3758e-03  2.4875e-03  0:07:18 1964
    37  5.6877e-03  3.0639e-05  2.7742e-05  2.2967e-03  2.3930e-03  0:05:50 1963
    38  5.5699e-03  3.0139e-05  2.6424e-05  2.2238e-03  2.3052e-03  0:11:12 1962
    39  5.5317e-03  2.9685e-05  2.5185e-05  2.1557e-03  2.2231e-03  0:08:57 1961
    40  5.4769e-03  2.9255e-05  2.4010e-05  2.0924e-03  2.1467e-03  0:07:10 1960
    41  5.3916e-03  2.8846e-05  2.2886e-05  2.0336e-03  2.0753e-03  0:05:44 1959
    42  5.2784e-03  2.8451e-05  2.1833e-05  1.9784e-03  2.0080e-03  0:04:35 1958
    43  5.1826e-03  2.8081e-05  2.0837e-05  1.9270e-03  1.9449e-03  0:10:11 1957
    44  5.1311e-03  2.7741e-05  1.9895e-05  1.8792e-03  1.8855e-03  0:08:09 1956

  iter  continuity  x-velocity  y-velocity           k       omega     time/iter
    45  5.0751e-03  2.7397e-05  1.9013e-05  1.8348e-03  1.8295e-03  0:06:31 1955
    46  4.9942e-03  2.7105e-05  1.8181e-05  1.7929e-03  1.7765e-03  0:05:12 1954
    47  4.9942e-03  2.6785e-05  1.7410e-05  1.7538e-03  1.7264e-03  0:10:40 1953
    48  4.9195e-03  2.6534e-05  1.6643e-05  1.7168e-03  1.6788e-03  0:08:32 1952
    49  4.9391e-03  2.6235e-05  1.5951e-05  1.6818e-03  1.6338e-03  0:06:49 1951
    50  4.8807e-03  2.6015e-05  1.5261e-05  1.6486e-03  1.5912e-03  0:11:57 1950
    51  4.8631e-03  2.5754e-05  1.4655e-05  1.6175e-03  1.5505e-03  0:09:34 1949
    52  4.8299e-03  2.5501e-05  1.4060e-05  1.5882e-03  1.5117e-03  0:07:39 1948
    53  4.7745e-03  2.5239e-05  1.3484e-05  1.5604e-03  1.4747e-03  0:12:36 1947
    54  4.7621e-03  2.5005e-05  1.2935e-05  1.5335e-03  1.4393e-03  0:10:05 1946
    55  4.7145e-03  2.4779e-05  1.2435e-05  1.5078e-03  1.4056e-03  0:08:03 1945

  iter  continuity  x-velocity  y-velocity           k       omega     time/iter
    56  4.6944e-03  2.4528e-05  1.1971e-05  1.4839e-03  1.3733e-03  0:06:27 1944
    57  4.6801e-03  2.4283e-05  1.1531e-05  1.4605e-03  1.3421e-03  0:11:38 1943
    58  4.6791e-03  2.4046e-05  1.1111e-05  1.4381e-03  1.3123e-03  0:09:18 1942
    59  4.6775e-03  2.3817e-05  1.0711e-05  1.4167e-03  1.2836e-03  0:07:26 1941
    60  4.6327e-03  2.3563e-05  1.0336e-05  1.3960e-03  1.2562e-03  0:12:25 1940
    61  4.6069e-03  2.3327e-05  9.9850e-06  1.3758e-03  1.2298e-03  0:09:55 1939
    62  4.5921e-03  2.3097e-05  9.6434e-06  1.3565e-03  1.2044e-03  0:07:56 1938
    63  4.5671e-03  2.2853e-05  9.3335e-06  1.3377e-03  1.1798e-03  0:12:48 1937
    64  4.5543e-03  2.2624e-05  9.0454e-06  1.3196e-03  1.1560e-03  0:10:14 1936
    65  4.5590e-03  2.2416e-05  8.7638e-06  1.3025e-03  1.1332e-03  0:08:11 1935
    66  4.5868e-03  2.2203e-05  8.5026e-06  1.2855e-03  1.1114e-03  0:06:33 1934

  iter  continuity  x-velocity  y-velocity           k       omega     time/iter
    67  4.5887e-03  2.1978e-05  8.2600e-06  1.2688e-03  1.0901e-03  0:11:41 1933
    68  4.5960e-03  2.1762e-05  8.0341e-06  1.2528e-03  1.0695e-03  0:09:20 1932
    69  4.5930e-03  2.1586e-05  7.8249e-06  1.2375e-03  1.0497e-03  0:07:28 1931
    70  4.6134e-03  2.1395e-05  7.6316e-06  1.2223e-03  1.0306e-03  0:12:24 1930
    71  4.6328e-03  2.1185e-05  7.4572e-06  1.2079e-03  1.0120e-03  0:09:55 1929
    72  4.6321e-03  2.0990e-05  7.2832e-06  1.1938e-03  9.9409e-04  0:07:56 1928
    73  4.6373e-03  2.0816e-05  7.1215e-06  1.1800e-03  9.7679e-04  0:12:46 1927
    74  4.6319e-03  2.0669e-05  6.9762e-06  1.1671e-03  9.6007e-04  0:10:12 1926
    75  4.6254e-03  2.0509e-05  6.8484e-06  1.1543e-03  9.4382e-04  0:08:10 1925
    76  4.6303e-03  2.0315e-05  6.7280e-06  1.1416e-03  9.2824e-04  0:06:31 1924
    77  4.6340e-03  2.0155e-05  6.6149e-06  1.1295e-03  9.1315e-04  0:11:38 1923

  iter  continuity  x-velocity  y-velocity           k       omega     time/iter
    78  4.6562e-03  2.0006e-05  6.5128e-06  1.1176e-03  8.9847e-04  0:09:18 1922
    79  4.6771e-03  1.9862e-05  6.4173e-06  1.1061e-03  8.8433e-04  0:07:26 1921
    80  4.7165e-03  1.9743e-05  6.3241e-06  1.0947e-03  8.7059e-04  0:12:21 1920
    81  4.7309e-03  1.9616e-05  6.2404e-06  1.0837e-03  8.5742e-04  0:09:52 1919
    82  4.7268e-03  1.9468e-05  6.1668e-06  1.0731e-03  8.4467e-04  0:14:17 1918
    83  4.7543e-03  1.9318e-05  6.0964e-06  1.0626e-03  8.3224e-04  0:11:25 1917
    84  4.7791e-03  1.9175e-05  6.0308e-06  1.0523e-03  8.2014e-04  0:09:08 1916
    85  4.8271e-03  1.9037e-05  5.9643e-06  1.0419e-03  8.0838e-04  0:13:41 1915
    86  4.8516e-03  1.8915e-05  5.9011e-06  1.0318e-03  7.9688e-04  0:10:57 1914
    87  4.8392e-03  1.8781e-05  5.8433e-06  1.0219e-03  7.8569e-04  0:08:45 1913
    88  4.8491e-03  1.8651e-05  5.7885e-06  1.0119e-03  7.7489e-04  0:13:22 1912

  iter  continuity  x-velocity  y-velocity           k       omega     time/iter
    89  4.8578e-03  1.8506e-05  5.7389e-06  1.0024e-03  7.6437e-04  0:10:41 1911
    90  4.8686e-03  1.8369e-05  5.6889e-06  9.9317e-04  7.5414e-04  0:08:33 1910
    91  4.8704e-03  1.8242e-05  5.6395e-06  9.8402e-04  7.4422e-04  0:06:50 1909
    92  4.8338e-03  1.8112e-05  5.5941e-06  9.7480e-04  7.3453e-04  0:11:49 1908
    93  4.8393e-03  1.7983e-05  5.5471e-06  9.6596e-04  7.2502e-04  0:09:27 1907
    94  4.8480e-03  1.7847e-05  5.5046e-06  9.5721e-04  7.1579e-04  0:07:34 1906
    95  4.8573e-03  1.7715e-05  5.4605e-06  9.4856e-04  7.0685e-04  0:12:24 1905
    96  4.8668e-03  1.7586e-05  5.4083e-06  9.4015e-04  6.9813e-04  0:09:55 1904
    97  4.8767e-03  1.7453e-05  5.3591e-06  9.3189e-04  6.8957e-04  0:07:55 1903
    98  4.8569e-03  1.7313e-05  5.3142e-06  9.2384e-04  6.8120e-04  0:12:41 1902
    99  4.8717e-03  1.7171e-05  5.2653e-06  9.1585e-04  6.7306e-04  0:10:08 1901

  iter  continuity  x-velocity  y-velocity           k       omega     time/iter
   100  4.8710e-03  1.7026e-05  5.2175e-06  9.0806e-04  6.6515e-04  0:08:06 1900
   101  4.8602e-03  1.6893e-05  5.1718e-06  9.0032e-04  6.5743e-04  0:12:49 1899
   102  4.8463e-03  1.6748e-05  5.1196e-06  8.9288e-04  6.4989e-04  0:10:15 1898
   103  4.8090e-03  1.6601e-05  5.0688e-06  8.8572e-04  6.4252e-04  0:08:11 1897
   104  4.8020e-03  1.6461e-05  5.0172e-06  8.7858e-04  6.3537e-04  0:12:52 1896
   105  4.7791e-03  1.6320e-05  4.9644e-06  8.7147e-04  6.2840e-04  0:10:17 1895
   106  4.7775e-03  1.6188e-05  4.9132e-06  8.6467e-04  6.2157e-04  0:08:14 1894
   107  4.7652e-03  1.6058e-05  4.8617e-06  8.5783e-04  6.1490e-04  0:12:53 1893
   108  4.7464e-03  1.5921e-05  4.8089e-06  8.5128e-04  6.0836e-04  0:10:18 1892
   109  4.7143e-03  1.5779e-05  4.7505e-06  8.4475e-04  6.0194e-04  0:08:14 1891
   110  4.6588e-03  1.5642e-05  4.6932e-06  8.3847e-04  5.9572e-04  0:06:35 1890

  iter  continuity  x-velocity  y-velocity           k       omega     time/iter
   111  4.6273e-03  1.5518e-05  4.6391e-06  8.3230e-04  5.8965e-04  0:11:34 1889
   112  4.5939e-03  1.5395e-05  4.5861e-06  8.2616e-04  5.8370e-04  0:09:15 1888
   113  4.5593e-03  1.5275e-05  4.5314e-06  8.2004e-04  5.7782e-04  0:07:24 1887
   114  4.5333e-03  1.5151e-05  4.4779e-06  8.1407e-04  5.7207e-04  0:12:12 1886
   115  4.4922e-03  1.5019e-05  4.4250e-06  8.0818e-04  5.6646e-04  0:09:45 1885
   116  4.4620e-03  1.4892e-05  4.3672e-06  8.0229e-04  5.6087e-04  0:07:48 1884
   117  4.4411e-03  1.4769e-05  4.3157e-06  7.9647e-04  5.5546e-04  0:12:31 1883
   118  4.4117e-03  1.4637e-05  4.2646e-06  7.9069e-04  5.5016e-04  0:10:00 1882
   119  4.3623e-03  1.4501e-05  4.2126e-06  7.8495e-04  5.4494e-04  0:08:00 1881
   120  4.3055e-03  1.4364e-05  4.1604e-06  7.7941e-04  5.3983e-04  0:06:24 1880
   121  4.2528e-03  1.4245e-05  4.1077e-06  7.7382e-04  5.3480e-04  0:11:23 1879

  iter  continuity  x-velocity  y-velocity           k       omega     time/iter
   122  4.2124e-03  1.4134e-05  4.0565e-06  7.6834e-04  5.2994e-04  0:09:06 1878
   123  4.1583e-03  1.4025e-05  4.0058e-06  7.6289e-04  5.2514e-04  0:07:16 1877
   124  4.1219e-03  1.3913e-05  3.9541e-06  7.5752e-04  5.2041e-04  0:12:04 1876
   125  4.0885e-03  1.3804e-05  3.9008e-06  7.5219e-04  5.1575e-04  0:09:39 1875
   126  4.0633e-03  1.3692e-05  3.8498e-06  7.4688e-04  5.1118e-04  0:07:43 1874
   127  4.0235e-03  1.3589e-05  3.8002e-06  7.4167e-04  5.0668e-04  0:12:25 1873
   128  3.9886e-03  1.3491e-05  3.7492e-06  7.3659e-04  5.0228e-04  0:09:56 1872
   129  3.9685e-03  1.3396e-05  3.6965e-06  7.3154e-04  4.9799e-04  0:07:56 1871
   130  3.9270e-03  1.3293e-05  3.6440e-06  7.2646e-04  4.9379e-04  0:12:35 1870
   131  3.8951e-03  1.3190e-05  3.5901e-06  7.2150e-04  4.8963e-04  0:10:03 1869
   132  3.8490e-03  1.3084e-05  3.5414e-06  7.1659e-04  4.8555e-04  0:08:03 1868

  iter  continuity  x-velocity  y-velocity           k       omega     time/iter
   133  3.7998e-03  1.2979e-05  3.4931e-06  7.1173e-04  4.8150e-04  0:12:39 1867
   134  3.7433e-03  1.2881e-05  3.4440e-06  7.0690e-04  4.7752e-04  0:10:07 1866
   135  3.6849e-03  1.2781e-05  3.3968e-06  7.0209e-04  4.7357e-04  0:08:05 1865
   136  3.6348e-03  1.2687e-05  3.3494e-06  6.9732e-04  4.6970e-04  0:12:41 1864
   137  3.5988e-03  1.2595e-05  3.3028e-06  6.9264e-04  4.6591e-04  0:10:08 1863
   138  3.5624e-03  1.2504e-05  3.2547e-06  6.8800e-04  4.6214e-04  0:08:06 1862
   139  3.5083e-03  1.2416e-05  3.2035e-06  6.8341e-04  4.5848e-04  0:06:29 1861
   140  3.4708e-03  1.2327e-05  3.1555e-06  6.7876e-04  4.5483e-04  0:11:23 1860
   141  3.4328e-03  1.2238e-05  3.1122e-06  6.7431e-04  4.5124e-04  0:09:06 1859
   142  3.3798e-03  1.2144e-05  3.0689e-06  6.6984e-04  4.4768e-04  0:07:17 1858
   143  3.3152e-03  1.2052e-05  3.0209e-06  6.6543e-04  4.4417e-04  0:12:01 1857

  iter  continuity  x-velocity  y-velocity           k       omega     time/iter
   144  3.2699e-03  1.1969e-05  2.9769e-06  6.6104e-04  4.4070e-04  0:09:36 1856
   145  3.2568e-03  1.1887e-05  2.9357e-06  6.5670e-04  4.3729e-04  0:07:41 1855
   146  3.2405e-03  1.1808e-05  2.8964e-06  6.5237e-04  4.3387e-04  0:12:19 1854
   147  3.2107e-03  1.1725e-05  2.8553e-06  6.4810e-04  4.3050e-04  0:09:51 1853
   148  3.1959e-03  1.1647e-05  2.8145e-06  6.4387e-04  4.2722e-04  0:07:53 1852
   149  3.1721e-03  1.1573e-05  2.7730e-06  6.3955e-04  4.2400e-04  0:12:28 1851
   150  3.1420e-03  1.1497e-05  2.7290e-06  6.3534e-04  4.2079e-04  0:09:58 1850
   151  3.1186e-03  1.1426e-05  2.6856e-06  6.3118e-04  4.1758e-04  0:07:58 1849
   152  3.0840e-03  1.1356e-05  2.6477e-06  6.2699e-04  4.1446e-04  0:06:22 1848
   153  3.0551e-03  1.1289e-05  2.6080e-06  6.2275e-04  4.1138e-04  0:11:15 1847
   154  3.0120e-03  1.1215e-05  2.5715e-06  6.1860e-04  4.0836e-04  0:09:00 1846

  iter  continuity  x-velocity  y-velocity           k       omega     time/iter
   155  2.9649e-03  1.1140e-05  2.5331e-06  6.1446e-04  4.0536e-04  0:07:12 1845
   156  2.9473e-03  1.1065e-05  2.4957e-06  6.1025e-04  4.0236e-04  0:11:54 1844
   157  2.9289e-03  1.0988e-05  2.4626e-06  6.0609e-04  3.9938e-04  0:09:31 1843
   158  2.9131e-03  1.0916e-05  2.4309e-06  6.0197e-04  3.9641e-04  0:07:36 1842
   159  2.8857e-03  1.0847e-05  2.3939e-06  5.9787e-04  3.9348e-04  0:12:13 1841
   160  2.8907e-03  1.0779e-05  2.3604e-06  5.9384e-04  3.9056e-04  0:09:46 1840
   161  2.8854e-03  1.0711e-05  2.3278e-06  5.8976e-04  3.8772e-04  0:07:49 1839
   162  2.8733e-03  1.0642e-05  2.2967e-06  5.8570e-04  3.8490e-04  0:06:15 1838
   163  2.8632e-03  1.0577e-05  2.2649e-06  5.8163e-04  3.8211e-04  0:11:07 1837
   164  2.8382e-03  1.0498e-05  2.2344e-06  5.7762e-04  3.7934e-04  0:08:53 1836
   165  2.8385e-03  1.0419e-05  2.2054e-06  5.7355e-04  3.7659e-04  0:07:06 1835

  iter  continuity  x-velocity  y-velocity           k       omega     time/iter
   166  2.8250e-03  1.0346e-05  2.1768e-06  5.6953e-04  3.7387e-04  0:11:48 1834
   167  2.8132e-03  1.0276e-05  2.1480e-06  5.6548e-04  3.7116e-04  0:09:26 1833
   168  2.7940e-03  1.0209e-05  2.1202e-06  5.6150e-04  3.6845e-04  0:07:32 1832
   169  2.7801e-03  1.0144e-05  2.0914e-06  5.5756e-04  3.6579e-04  0:12:08 1831
   170  2.7685e-03  1.0075e-05  2.0627e-06  5.5363e-04  3.6318e-04  0:09:42 1830
   171  2.7713e-03  1.0011e-05  2.0330e-06  5.4968e-04  3.6056e-04  0:07:45 1829
   172  2.7750e-03  9.9518e-06  2.0082e-06  5.4577e-04  3.5795e-04  0:06:12 1828
   173  2.7871e-03  9.8911e-06  1.9803e-06  5.4188e-04  3.5535e-04  0:11:03 1827
   174  2.7944e-03  9.8293e-06  1.9567e-06  5.3799e-04  3.5280e-04  0:08:50 1826
   175  2.7907e-03  9.7693e-06  1.9308e-06  5.3413e-04  3.5029e-04  0:13:09 1825
   176  2.7890e-03  9.7123e-06  1.9051e-06  5.3031e-04  3.4781e-04  0:10:31 1824

  iter  continuity  x-velocity  y-velocity           k       omega     time/iter
   177  2.7944e-03  9.6507e-06  1.8824e-06  5.2648e-04  3.4527e-04  0:08:24 1823
   178  2.7868e-03  9.5930e-06  1.8610e-06  5.2264e-04  3.4276e-04  0:12:48 1822
   179  2.7845e-03  9.5352e-06  1.8365e-06  5.1890e-04  3.4026e-04  0:10:14 1821
   180  2.7858e-03  9.4823e-06  1.8123e-06  5.1516e-04  3.3780e-04  0:08:11 1820
   181  2.7731e-03  9.4329e-06  1.7848e-06  5.1144e-04  3.3535e-04  0:06:32 1819
   182  2.7568e-03  9.3744e-06  1.7625e-06  5.0776e-04  3.3292e-04  0:11:17 1818
   183  2.7507e-03  9.3129e-06  1.7371e-06  5.0412e-04  3.3050e-04  0:09:02 1817
   184  2.7343e-03  9.2514e-06  1.7135e-06  5.0050e-04  3.2806e-04  0:07:13 1816
   185  2.7309e-03  9.1856e-06  1.6934e-06  4.9693e-04  3.2565e-04  0:11:49 1815
   186  2.7301e-03  9.1198e-06  1.6735e-06  4.9340e-04  3.2326e-04  0:09:27 1814
   187  2.7253e-03  9.0578e-06  1.6566e-06  4.8989e-04  3.2087e-04  0:07:33 1813

  iter  continuity  x-velocity  y-velocity           k       omega     time/iter
   188  2.7088e-03  9.0031e-06  1.6397e-06  4.8642e-04  3.1849e-04  0:12:05 1812
   189  2.7058e-03  8.9433e-06  1.6245e-06  4.8298e-04  3.1611e-04  0:09:40 1811
   190  2.7123e-03  8.8825e-06  1.6095e-06  4.7956e-04  3.1373e-04  0:07:43 1810
   191  2.7328e-03  8.8272e-06  1.5919e-06  4.7618e-04  3.1137e-04  0:06:11 1809
   192  2.7447e-03  8.7718e-06  1.5769e-06  4.7284e-04  3.0902e-04  0:10:58 1808
   193  2.7605e-03  8.7155e-06  1.5625e-06  4.6953e-04  3.0668e-04  0:08:46 1807
   194  2.7695e-03  8.6535e-06  1.5499e-06  4.6626e-04  3.0436e-04  0:07:01 1806
   195  2.7761e-03  8.5946e-06  1.5382e-06  4.6302e-04  3.0206e-04  0:11:37 1805
   196  2.7802e-03  8.5332e-06  1.5266e-06  4.5981e-04  2.9977e-04  0:09:18 1804
   197  2.7901e-03  8.4783e-06  1.5176e-06  4.5665e-04  2.9750e-04  0:07:26 1803
   198  2.7955e-03  8.4203e-06  1.5094e-06  4.5351e-04  2.9524e-04  0:11:57 1802

  iter  continuity  x-velocity  y-velocity           k       omega     time/iter
   199  2.8140e-03  8.3604e-06  1.4995e-06  4.5042e-04  2.9301e-04  0:09:33 1801
   200  2.8288e-03  8.2973e-06  1.4955e-06  4.4735e-04  2.9077e-04  0:07:38 1800
   201  2.8518e-03  8.2361e-06  1.4885e-06  4.4430e-04  2.8855e-04  0:06:06 1799
   202  2.8484e-03  8.1740e-06  1.4805e-06  4.4131e-04  2.8634e-04  0:10:53 1798
   203  2.8464e-03  8.1096e-06  1.4712e-06  4.3839e-04  2.8414e-04  0:08:42 1797
   204  2.8396e-03  8.0386e-06  1.4659e-06  4.3552e-04  2.8193e-04  0:06:57 1796
   205  2.8276e-03  7.9736e-06  1.4574e-06  4.3268e-04  2.7973e-04  0:11:33 1795
   206  2.8161e-03  7.9033e-06  1.4496e-06  4.2992e-04  2.7753e-04  0:09:14 1794
   207  2.8078e-03  7.8329e-06  1.4414e-06  4.2720e-04  2.7532e-04  0:07:23 1793
   208  2.7942e-03  7.7575e-06  1.4343e-06  4.2453e-04  2.7312e-04  0:11:52 1792
   209  2.7707e-03  7.6808e-06  1.4259e-06  4.2189e-04  2.7094e-04  0:09:30 1791

  iter  continuity  x-velocity  y-velocity           k       omega     time/iter
   210  2.7483e-03  7.5997e-06  1.4154e-06  4.1932e-04  2.6876e-04  0:07:35 1790
   211  2.7387e-03  7.5225e-06  1.4064e-06  4.1679e-04  2.6659e-04  0:06:04 1789
   212  2.7043e-03  7.4445e-06  1.3959e-06  4.1432e-04  2.6441e-04  0:10:49 1788
   213  2.6702e-03  7.3634e-06  1.3861e-06  4.1187e-04  2.6225e-04  0:08:39 1787
   214  2.6359e-03  7.2813e-06  1.3769e-06  4.0944e-04  2.6009e-04  0:06:55 1786
   215  2.6134e-03  7.2032e-06  1.3676e-06  4.0707e-04  2.5793e-04  0:11:29 1785
   216  2.5954e-03  7.1262e-06  1.3581e-06  4.0471e-04  2.5579e-04  0:09:11 1784
   217  2.5843e-03  7.0581e-06  1.3516e-06  4.0239e-04  2.5366e-04  0:07:20 1783
   218  2.5627e-03  6.9943e-06  1.3458e-06  4.0007e-04  2.5152e-04  0:05:52 1782
   219  2.5492e-03  6.9334e-06  1.3365e-06  3.9777e-04  2.4940e-04  0:10:38 1781
   220  2.5339e-03  6.8769e-06  1.3275e-06  3.9546e-04  2.4729e-04  0:08:30 1780

  iter  continuity  x-velocity  y-velocity           k       omega     time/iter
   221  2.5188e-03  6.8174e-06  1.3215e-06  3.9318e-04  2.4518e-04  0:12:43 1779
   222  2.5052e-03  6.7622e-06  1.3131e-06  3.9091e-04  2.4309e-04  0:10:10 1778
   223  2.4924e-03  6.7108e-06  1.3045e-06  3.8866e-04  2.4101e-04  0:08:08 1777
   224  2.4602e-03  6.6555e-06  1.2955e-06  3.8641e-04  2.3892e-04  0:12:25 1776
   225  2.4299e-03  6.6011e-06  1.2849e-06  3.8416e-04  2.3685e-04  0:09:56 1775
   226  2.4015e-03  6.5366e-06  1.2738e-06  3.8194e-04  2.3478e-04  0:07:57 1774
   227  2.3840e-03  6.4812e-06  1.2650e-06  3.7973e-04  2.3273e-04  0:12:16 1773
   228  2.3566e-03  6.4300e-06  1.2579e-06  3.7754e-04  2.3066e-04  0:09:48 1772
   229  2.3260e-03  6.3773e-06  1.2520e-06  3.7535e-04  2.2861e-04  0:07:50 1771
   230  2.3095e-03  6.3286e-06  1.2454e-06  3.7318e-04  2.2657e-04  0:06:16 1770
   231  2.2899e-03  6.2814e-06  1.2378e-06  3.7101e-04  2.2455e-04  0:10:54 1769

  iter  continuity  x-velocity  y-velocity           k       omega     time/iter
   232  2.2689e-03  6.2363e-06  1.2315e-06  3.6886e-04  2.2253e-04  0:08:43 1768
   233  2.2366e-03  6.1894e-06  1.2237e-06  3.6675e-04  2.2051e-04  0:06:58 1767
   234  2.2133e-03  6.1419e-06  1.2152e-06  3.6464e-04  2.1852e-04  0:11:28 1766
   235  2.2058e-03  6.0947e-06  1.2062e-06  3.6254e-04  2.1653e-04  0:09:10 1765
   236  2.1787e-03  6.0456e-06  1.1977e-06  3.6046e-04  2.1455e-04  0:07:20 1764
   237  2.1615e-03  5.9984e-06  1.1905e-06  3.5839e-04  2.1259e-04  0:11:44 1763
   238  2.1391e-03  5.9539e-06  1.1838e-06  3.5632e-04  2.1064e-04  0:09:23 1762
   239  2.1136e-03  5.9065e-06  1.1784e-06  3.5429e-04  2.0872e-04  0:07:30 1761
   240  2.0778e-03  5.8570e-06  1.1705e-06  3.5226e-04  2.0680e-04  0:06:00 1760
   241  2.0529e-03  5.8107e-06  1.1603e-06  3.5026e-04  2.0490e-04  0:10:40 1759
   242  2.0219e-03  5.7635e-06  1.1530e-06  3.4826e-04  2.0301e-04  0:08:31 1758

  iter  continuity  x-velocity  y-velocity           k       omega     time/iter
   243  1.9863e-03  5.7190e-06  1.1451e-06  3.4628e-04  2.0115e-04  0:06:49 1757
   244  1.9561e-03  5.6767e-06  1.1366e-06  3.4431e-04  1.9930e-04  0:11:18 1756
   245  1.9291e-03  5.6399e-06  1.1262e-06  3.4237e-04  1.9746e-04  0:09:02 1755
   246  1.9019e-03  5.6039e-06  1.1162e-06  3.4043e-04  1.9565e-04  0:07:13 1754
   247  1.8690e-03  5.5618e-06  1.1086e-06  3.3851e-04  1.9385e-04  0:05:47 1753
   248  1.8416e-03  5.5276e-06  1.0987e-06  3.3661e-04  1.9207e-04  0:10:28 1752
   249  1.8183e-03  5.4974e-06  1.0911e-06  3.3470e-04  1.9032e-04  0:08:22 1751
   250  1.7945e-03  5.4680e-06  1.0829e-06  3.3282e-04  1.8858e-04  0:06:41 1750
   251  1.7776e-03  5.4423e-06  1.0753e-06  3.3095e-04  1.8687e-04  0:11:11 1749
   252  1.7540e-03  5.4161e-06  1.0659e-06  3.2909e-04  1.8518e-04  0:08:56 1748
   253  1.7437e-03  5.3895e-06  1.0586e-06  3.2725e-04  1.8350e-04  0:07:09 1747

  iter  continuity  x-velocity  y-velocity           k       omega     time/iter
   254  1.7234e-03  5.3627e-06  1.0514e-06  3.2543e-04  1.8185e-04  0:11:32 1746
   255  1.7122e-03  5.3369e-06  1.0425e-06  3.2362e-04  1.8023e-04  0:09:13 1745
   256  1.6944e-03  5.3105e-06  1.0345e-06  3.2183e-04  1.7863e-04  0:07:22 1744
   257  1.6818e-03  5.2866e-06  1.0262e-06  3.2004e-04  1.7707e-04  0:11:42 1743
   258  1.6694e-03  5.2601e-06  1.0189e-06  3.1828e-04  1.7552e-04  0:09:21 1742
   259  1.6654e-03  5.2350e-06  1.0099e-06  3.1652e-04  1.7400e-04  0:07:29 1741
   260  1.6570e-03  5.2086e-06  1.0004e-06  3.1477e-04  1.7251e-04  0:05:59 1740
   261  1.6505e-03  5.1822e-06  9.9142e-07  3.1305e-04  1.7105e-04  0:10:35 1739
   262  1.6452e-03  5.1563e-06  9.8253e-07  3.1134e-04  1.6962e-04  0:08:28 1738
   263  1.6475e-03  5.1325e-06  9.7443e-07  3.0964e-04  1.6822e-04  0:06:46 1737
   264  1.6409e-03  5.1049e-06  9.6571e-07  3.0796e-04  1.6685e-04  0:11:12 1736

  iter  continuity  x-velocity  y-velocity           k       omega     time/iter
   265  1.6309e-03  5.0798e-06  9.5717e-07  3.0630e-04  1.6550e-04  0:08:57 1735
   266  1.6253e-03  5.0539e-06  9.4920e-07  3.0464e-04  1.6419e-04  0:07:09 1734
   267  1.6212e-03  5.0288e-06  9.4184e-07  3.0300e-04  1.6292e-04  0:11:30 1733
   268  1.6168e-03  5.0020e-06  9.3375e-07  3.0137e-04  1.6168e-04  0:09:12 1732
   269  1.6110e-03  4.9757e-06  9.2507e-07  2.9975e-04  1.6047e-04  0:07:21 1731
   270  1.6026e-03  4.9480e-06  9.1695e-07  2.9814e-04  1.5929e-04  0:11:39 1730
   271  1.5980e-03  4.9180e-06  9.1002e-07  2.9654e-04  1.5815e-04  0:09:19 1729
   272  1.5952e-03  4.8877e-06  9.0285e-07  2.9496e-04  1.5703e-04  0:07:27 1728
   273  1.5809e-03  4.8542e-06  8.9638e-07  2.9338e-04  1.5595e-04  0:11:42 1727
   274  1.5729e-03  4.8213e-06  8.8938e-07  2.9181e-04  1.5490e-04  0:09:22 1726
   275  1.5605e-03  4.7889e-06  8.8146e-07  2.9026e-04  1.5388e-04  0:07:29 1725

  iter  continuity  x-velocity  y-velocity           k       omega     time/iter
   276  1.5459e-03  4.7544e-06  8.7418e-07  2.8870e-04  1.5291e-04  0:11:44 1724
   277  1.5326e-03  4.7205e-06  8.6652e-07  2.8716e-04  1.5196e-04  0:09:23 1723
   278  1.5223e-03  4.6879e-06  8.6064e-07  2.8563e-04  1.5104e-04  0:07:30 1722
   279  1.5158e-03  4.6541e-06  8.5442e-07  2.8411e-04  1.5016e-04  0:06:00 1721
   280  1.5126e-03  4.6224e-06  8.4809e-07  2.8259e-04  1.4930e-04  0:10:32 1720
   281  1.5055e-03  4.5892e-06  8.4184e-07  2.8109e-04  1.4848e-04  0:08:25 1719
   282  1.4961e-03  4.5545e-06  8.3688e-07  2.7958e-04  1.4769e-04  0:06:44 1718
   283  1.4885e-03  4.5200e-06  8.3178e-07  2.7807e-04  1.4694e-04  0:11:06 1717
   284  1.4769e-03  4.4856e-06  8.2644e-07  2.7657e-04  1.4621e-04  0:08:53 1716
   285  1.4675e-03  4.4503e-06  8.2051e-07  2.7509e-04  1.4553e-04  0:07:06 1715
   286  1.4599e-03  4.4176e-06  8.1592e-07  2.7360e-04  1.4486e-04  0:11:23 1714

  iter  continuity  x-velocity  y-velocity           k       omega     time/iter
   287  1.4505e-03  4.3840e-06  8.1199e-07  2.7211e-04  1.4424e-04  0:09:06 1713
   288  1.4374e-03  4.3503e-06  8.0524e-07  2.7062e-04  1.4364e-04  0:07:17 1712
   289  1.4276e-03  4.3166e-06  8.0105e-07  2.6916e-04  1.4307e-04  0:05:49 1711
   290  1.4201e-03  4.2856e-06  7.9724e-07  2.6769e-04  1.4253e-04  0:10:21 1710
   291  1.4092e-03  4.2548e-06  7.9450e-07  2.6624e-04  1.4202e-04  0:08:17 1709
   292  1.4026e-03  4.2225e-06  7.9029e-07  2.6480e-04  1.4153e-04  0:06:37 1708
   293  1.3909e-03  4.1911e-06  7.8630e-07  2.6336e-04  1.4107e-04  0:10:59 1707
   294  1.3840e-03  4.1590e-06  7.8250e-07  2.6192e-04  1.4063e-04  0:08:47 1706
   295  1.3690e-03  4.1284e-06  7.7772e-07  2.6050e-04  1.4022e-04  0:07:01 1705
   296  1.3613e-03  4.0965e-06  7.7553e-07  2.5909e-04  1.3983e-04  0:11:18 1704
   297  1.3509e-03  4.0654e-06  7.7268e-07  2.5768e-04  1.3948e-04  0:09:02 1703

  iter  continuity  x-velocity  y-velocity           k       omega     time/iter
   298  1.3363e-03  4.0375e-06  7.6986e-07  2.5628e-04  1.3913e-04  0:07:13 1702
   299  1.3242e-03  4.0095e-06  7.6779e-07  2.5488e-04  1.3881e-04  0:05:46 1701
   300  1.3094e-03  3.9792e-06  7.6569e-07  2.5350e-04  1.3851e-04  0:10:17 1700
   301  1.2926e-03  3.9492e-06  7.6375e-07  2.5212e-04  1.3824e-04  0:08:13 1699
   302  1.2786e-03  3.9195e-06  7.5977e-07  2.5076e-04  1.3798e-04  0:06:34 1698
   303  1.2650e-03  3.8906e-06  7.5661e-07  2.4939e-04  1.3774e-04  0:10:55 1697
   304  1.2479e-03  3.8635e-06  7.5430e-07  2.4804e-04  1.3752e-04  0:08:43 1696
   305  1.2370e-03  3.8355e-06  7.5128e-07  2.4669e-04  1.3731e-04  0:06:59 1695
   306  1.2238e-03  3.8066e-06  7.4810e-07  2.4535e-04  1.3711e-04  0:11:13 1694
   307  1.2096e-03  3.7788e-06  7.4618e-07  2.4402e-04  1.3693e-04  0:08:58 1693
   308  1.1954e-03  3.7521e-06  7.4401e-07  2.4270e-04  1.3676e-04  0:07:10 1692

  iter  continuity  x-velocity  y-velocity           k       omega     time/iter
   309  1.1792e-03  3.7242e-06  7.3937e-07  2.4139e-04  1.3660e-04  0:05:44 1691
   310  1.1671e-03  3.7011e-06  7.4018e-07  2.4009e-04  1.3644e-04  0:10:13 1690
   311  1.1506e-03  3.6757e-06  7.3497e-07  2.3879e-04  1.3630e-04  0:08:10 1689
   312  1.1349e-03  3.6494e-06  7.3378e-07  2.3750e-04  1.3615e-04  0:06:32 1688
   313  1.1217e-03  3.6260e-06  7.3067e-07  2.3621e-04  1.3601e-04  0:10:51 1687
   314  1.1077e-03  3.6036e-06  7.2762e-07  2.3493e-04  1.3587e-04  0:08:40 1686
   315  1.0920e-03  3.5805e-06  7.2533e-07  2.3364e-04  1.3573e-04  0:12:33 1685
   316  1.0755e-03  3.5581e-06  7.2341e-07  2.3237e-04  1.3560e-04  0:10:02 1684
   317  1.0632e-03  3.5365e-06  7.2104e-07  2.3110e-04  1.3546e-04  0:08:01 1683
   318  1.0485e-03  3.5163e-06  7.1801e-07  2.2983e-04  1.3531e-04  0:06:25 1682
   319  1.0369e-03  3.4956e-06  7.1495e-07  2.2857e-04  1.3516e-04  0:10:44 1681

  iter  continuity  x-velocity  y-velocity           k       omega     time/iter
   320  1.0257e-03  3.4746e-06  7.1290e-07  2.2730e-04  1.3501e-04  0:08:35 1680
   321  1.0145e-03  3.4563e-06  7.1044e-07  2.2605e-04  1.3485e-04  0:06:52 1679
   322  1.0070e-03  3.4356e-06  7.0940e-07  2.2478e-04  1.3469e-04  0:11:05 1678
   323  9.9217e-04  3.4164e-06  7.0657e-07  2.2354e-04  1.3451e-04  0:08:51 1677
   324  9.8286e-04  3.3953e-06  7.0623e-07  2.2228e-04  1.3432e-04  0:07:05 1676
   325  9.7100e-04  3.3755e-06  7.0337e-07  2.2105e-04  1.3412e-04  0:11:15 1675
   326  9.5518e-04  3.3547e-06  6.9862e-07  2.1980e-04  1.3391e-04  0:08:59 1674
   327  9.4523e-04  3.3383e-06  6.9996e-07  2.1856e-04  1.3369e-04  0:07:11 1673
   328  9.2407e-04  3.3184e-06  6.9523e-07  2.1732e-04  1.3346e-04  0:11:19 1672
   329  9.2092e-04  3.3030e-06  6.9591e-07  2.1609e-04  1.3322e-04  0:09:03 1671
   330  9.0514e-04  3.2836e-06  6.9201e-07  2.1485e-04  1.3296e-04  0:07:14 1670

  iter  continuity  x-velocity  y-velocity           k       omega     time/iter
   331  8.9722e-04  3.2657e-06  6.9015e-07  2.1363e-04  1.3269e-04  0:05:47 1669
   332  8.8629e-04  3.2489e-06  6.8842e-07  2.1241e-04  1.3241e-04  0:10:11 1668
   333  8.7640e-04  3.2316e-06  6.8752e-07  2.1119e-04  1.3213e-04  0:08:09 1667
   334  8.7178e-04  3.2143e-06  6.8622e-07  2.0997e-04  1.3182e-04  0:06:31 1666
   335  8.6585e-04  3.1990e-06  6.8361e-07  2.0875e-04  1.3150e-04  0:10:45 1665
   336  8.5962e-04  3.1823e-06  6.8308e-07  2.0754e-04  1.3118e-04  0:08:36 1664
   337  8.5231e-04  3.1649e-06  6.8184e-07  2.0634e-04  1.3084e-04  0:06:53 1663
   338  8.4338e-04  3.1474e-06  6.8065e-07  2.0513e-04  1.3050e-04  0:11:02 1662
   339  8.3705e-04  3.1308e-06  6.7919e-07  2.0393e-04  1.3014e-04  0:08:49 1661
   340  8.3396e-04  3.1135e-06  6.7822e-07  2.0273e-04  1.2978e-04  0:07:03 1660
   341  8.2376e-04  3.0971e-06  6.7647e-07  2.0154e-04  1.2941e-04  0:05:38 1659

  iter  continuity  x-velocity  y-velocity           k       omega     time/iter
   342  8.1419e-04  3.0797e-06  6.7455e-07  2.0035e-04  1.2903e-04  0:10:02 1658
   343  8.0712e-04  3.0629e-06  6.7223e-07  1.9916e-04  1.2865e-04  0:08:01 1657
   344  8.0089e-04  3.0450e-06  6.7151e-07  1.9797e-04  1.2825e-04  0:06:25 1656
   345  7.9167e-04  3.0267e-06  6.7046e-07  1.9680e-04  1.2785e-04  0:10:39 1655
   346  7.8460e-04  3.0094e-06  6.6823e-07  1.9562e-04  1.2744e-04  0:08:31 1654
   347  7.7873e-04  2.9916e-06  6.6622e-07  1.9445e-04  1.2702e-04  0:06:48 1653
   348  7.6771e-04  2.9747e-06  6.6363e-07  1.9328e-04  1.2661e-04  0:05:26 1652
   349  7.5882e-04  2.9562e-06  6.6004e-07  1.9211e-04  1.2619e-04  0:09:51 1651
   350  7.5467e-04  2.9408e-06  6.6156e-07  1.9094e-04  1.2576e-04  0:07:53 1650
   351  7.4464e-04  2.9230e-06  6.5721e-07  1.8977e-04  1.2534e-04  0:06:18 1649
   352  7.4178e-04  2.9069e-06  6.5799e-07  1.8860e-04  1.2491e-04  0:10:32 1648

  iter  continuity  x-velocity  y-velocity           k       omega     time/iter
   353  7.3252e-04  2.8886e-06  6.5339e-07  1.8742e-04  1.2448e-04  0:08:25 1647
   354  7.3162e-04  2.8735e-06  6.5471e-07  1.8625e-04  1.2405e-04  0:06:44 1646
   355  7.2432e-04  2.8537e-06  6.5096e-07  1.8509e-04  1.2362e-04  0:05:23 1645
   356  7.2317e-04  2.8368e-06  6.5133e-07  1.8391e-04  1.2319e-04  0:09:47 1644
   357  7.1393e-04  2.8165e-06  6.4746e-07  1.8274e-04  1.2276e-04  0:07:49 1643
   358  7.1354e-04  2.7990e-06  6.4539e-07  1.8157e-04  1.2233e-04  0:06:15 1642
   359  7.1300e-04  2.7841e-06  6.4486e-07  1.8040e-04  1.2190e-04  0:10:28 1641
   360  7.0365e-04  2.7651e-06  6.4088e-07  1.7923e-04  1.2146e-04  0:08:22 1640
   361  6.9924e-04  2.7481e-06  6.3830e-07  1.7805e-04  1.2103e-04  0:12:09 1639
   362  6.9216e-04  2.7301e-06  6.3554e-07  1.7689e-04  1.2059e-04  0:09:43 1638
   363  6.8779e-04  2.7125e-06  6.3326e-07  1.7572e-04  1.2016e-04  0:07:46 1637

  iter  continuity  x-velocity  y-velocity           k       omega     time/iter
   364  6.8237e-04  2.6949e-06  6.3077e-07  1.7457e-04  1.1972e-04  0:11:40 1636
   365  6.7667e-04  2.6773e-06  6.2779e-07  1.7340e-04  1.1929e-04  0:09:20 1635
   366  6.6980e-04  2.6583e-06  6.2474e-07  1.7221e-04  1.1884e-04  0:07:27 1634
   367  6.6848e-04  2.6406e-06  6.2149e-07  1.7100e-04  1.1840e-04  0:05:58 1633
   368  6.6060e-04  2.6228e-06  6.1859e-07  1.6980e-04  1.1795e-04  0:10:12 1632
   369  6.5706e-04  2.6046e-06  6.1593e-07  1.6859e-04  1.1751e-04  0:08:10 1631
   370  6.5138e-04  2.5860e-06  6.1223e-07  1.6739e-04  1.1706e-04  0:06:31 1630
   371  6.4612e-04  2.5691e-06  6.0845e-07  1.6620e-04  1.1661e-04  0:10:39 1629
   372  6.4388e-04  2.5504e-06  6.0527e-07  1.6501e-04  1.1617e-04  0:08:31 1628
   373  6.4421e-04  2.5326e-06  6.0180e-07  1.6381e-04  1.1572e-04  0:06:48 1627
   374  6.3784e-04  2.5144e-06  5.9836e-07  1.6260e-04  1.1528e-04  0:05:26 1626

  iter  continuity  x-velocity  y-velocity           k       omega     time/iter
   375  6.3585e-04  2.4973e-06  5.9506e-07  1.6140e-04  1.1483e-04  0:09:46 1625
   376  6.2870e-04  2.4807e-06  5.9059e-07  1.6019e-04  1.1437e-04  0:07:49 1624
   377  6.2692e-04  2.4637e-06  5.8695e-07  1.5899e-04  1.1393e-04  0:06:15 1623
   378  6.2434e-04  2.4467e-06  5.8346e-07  1.5781e-04  1.1348e-04  0:10:24 1622
   379  6.2437e-04  2.4307e-06  5.7928e-07  1.5660e-04  1.1303e-04  0:08:19 1621
   380  6.1749e-04  2.4148e-06  5.7527e-07  1.5538e-04  1.1258e-04  0:06:39 1620
   381  6.1739e-04  2.3980e-06  5.7118e-07  1.5414e-04  1.1212e-04  0:05:19 1619
   382  6.1349e-04  2.3815e-06  5.6680e-07  1.5291e-04  1.1166e-04  0:09:39 1618
   383  6.0982e-04  2.3637e-06  5.6250e-07  1.5168e-04  1.1120e-04  0:07:43 1617
   384  6.0989e-04  2.3471e-06  5.5872e-07  1.5044e-04  1.1073e-04  0:06:10 1616
   385  6.0534e-04  2.3316e-06  5.5416e-07  1.4921e-04  1.1027e-04  0:10:19 1615

  iter  continuity  x-velocity  y-velocity           k       omega     time/iter
   386  6.0192e-04  2.3146e-06  5.5002e-07  1.4797e-04  1.0979e-04  0:08:15 1614
   387  5.9562e-04  2.2978e-06  5.4364e-07  1.4675e-04  1.0932e-04  0:06:35 1613
   388  5.9971e-04  2.2834e-06  5.4337e-07  1.4553e-04  1.0884e-04  0:05:16 1612
   389  5.8689e-04  2.2659e-06  5.3390e-07  1.4431e-04  1.0835e-04  0:09:35 1611
   390  5.8810e-04  2.2497e-06  5.3383e-07  1.4309e-04  1.0785e-04  0:07:40 1610
   391  5.7724e-04  2.2323e-06  5.2535e-07  1.4188e-04  1.0735e-04  0:06:08 1609
   392  5.8189e-04  2.2181e-06  5.2520e-07  1.4065e-04  1.0684e-04  0:10:15 1608
   393  5.7313e-04  2.2010e-06  5.1715e-07  1.3938e-04  1.0631e-04  0:08:12 1607
   394  5.7321e-04  2.1862e-06  5.1839e-07  1.3810e-04  1.0576e-04  0:06:33 1606
   395  5.6822e-04  2.1694e-06  5.1010e-07  1.3682e-04  1.0522e-04  0:05:15 1605
   396  5.6999e-04  2.1563e-06  5.0979e-07  1.3554e-04  1.0468e-04  0:09:32 1604

  iter  continuity  x-velocity  y-velocity           k       omega     time/iter
   397  5.6037e-04  2.1406e-06  5.0149e-07  1.3427e-04  1.0415e-04  0:07:38 1603
   398  5.6402e-04  2.1284e-06  5.0189e-07  1.3298e-04  1.0360e-04  0:06:06 1602
   399  5.5859e-04  2.1138e-06  4.9306e-07  1.3171e-04  1.0305e-04  0:10:13 1601
   400  5.5966e-04  2.1024e-06  4.9416e-07  1.3045e-04  1.0250e-04  0:08:10 1600
   401  5.5453e-04  2.0889e-06  4.8572e-07  1.2920e-04  1.0197e-04  0:06:32 1599
   402  5.5980e-04  2.0777e-06  4.8652e-07  1.2795e-04  1.0142e-04  0:05:13 1598
   403  5.4979e-04  2.0655e-06  4.7801e-07  1.2673e-04  1.0087e-04  0:09:30 1597
   404  5.5102e-04  2.0549e-06  4.7990e-07  1.2552e-04  1.0030e-04  0:07:35 1596
   405  5.4458e-04  2.0423e-06  4.7150e-07  1.2432e-04  9.9726e-05  0:06:04 1595
   406  5.4700e-04  2.0319e-06  4.7302e-07  1.2310e-04  9.9143e-05  0:10:10 1594
   407  5.3961e-04  2.0198e-06  4.6487e-07  1.2189e-04  9.8520e-05  0:08:08 1593

  iter  continuity  x-velocity  y-velocity           k       omega     time/iter
   408  5.4301e-04  2.0113e-06  4.6498e-07  1.2068e-04  9.7930e-05  0:06:30 1592
   409  5.3785e-04  2.0004e-06  4.6027e-07  1.1948e-04  9.7328e-05  0:10:30 1591
   410  5.4067e-04  1.9905e-06  4.5987e-07  1.1827e-04  9.6721e-05  0:08:24 1590
   411  5.3462e-04  1.9796e-06  4.5602e-07  1.1709e-04  9.6126e-05  0:06:43 1589
   412  5.3351e-04  1.9706e-06  4.5625e-07  1.1590e-04  9.5508e-05  0:05:22 1588
   413  5.2434e-04  1.9601e-06  4.5119e-07  1.1474e-04  9.4906e-05  0:09:35 1587
   414  5.3013e-04  1.9545e-06  4.5478e-07  1.1358e-04  9.4274e-05  0:07:40 1586
   415  5.2327e-04  1.9449e-06  4.4912e-07  1.1244e-04  9.3671e-05  0:06:07 1585
   416  5.2646e-04  1.9382e-06  4.5233e-07  1.1125e-04  9.3042e-05  0:10:11 1584
   417  5.1849e-04  1.9298e-06  4.4807e-07  1.1008e-04  9.2419e-05  0:08:08 1583
   418  5.2113e-04  1.9252e-06  4.5079e-07  1.0893e-04  9.1774e-05  0:06:30 1582

  iter  continuity  x-velocity  y-velocity           k       omega     time/iter
   419  5.1542e-04  1.9170e-06  4.4688e-07  1.0780e-04  9.1154e-05  0:05:12 1581
   420  5.1492e-04  1.9123e-06  4.4943e-07  1.0666e-04  9.0525e-05  0:09:25 1580
   421  5.0716e-04  1.9048e-06  4.4547e-07  1.0553e-04  8.9881e-05  0:07:32 1579
   422  5.1076e-04  1.9011e-06  4.4898e-07  1.0437e-04  8.9245e-05  0:06:01 1578
   423  5.0683e-04  1.8931e-06  4.4487e-07  1.0325e-04  8.8633e-05  0:10:04 1577
   424  5.0403e-04  1.8886e-06  4.4734e-07  1.0213e-04  8.8003e-05  0:08:03 1576
   425  4.9885e-04  1.8830e-06  4.4638e-07  1.0102e-04  8.7380e-05  0:06:26 1575
   426  4.9600e-04  1.8776e-06  4.4697e-07  9.9944e-05  8.6765e-05  0:05:09 1574
   427  4.9352e-04  1.8729e-06  4.4580e-07  9.8862e-05  8.6140e-05  0:09:22 1573
   428  4.9434e-04  1.8704e-06  4.4852e-07  9.7807e-05  8.5527e-05  0:07:29 1572
   429  4.8205e-04  1.8640e-06  4.4469e-07  9.6750e-05  8.4894e-05  0:05:59 1571

  iter  continuity  x-velocity  y-velocity           k       omega     time/iter
   430  4.8392e-04  1.8608e-06  4.4700e-07  9.5720e-05  8.4261e-05  0:10:01 1570
   431  4.7561e-04  1.8559e-06  4.4543e-07  9.4698e-05  8.3616e-05  0:08:00 1569
   432  4.7412e-04  1.8519e-06  4.4768e-07  9.3679e-05  8.2976e-05  0:06:24 1568
   433  4.6778e-04  1.8468e-06  4.4637e-07  9.2679e-05  8.2359e-05  0:05:07 1567
   434  4.6466e-04  1.8439e-06  4.4685e-07  9.1686e-05  8.1749e-05  0:09:19 1566
   435  4.6050e-04  1.8388e-06  4.4718e-07  9.0721e-05  8.1142e-05  0:07:27 1565
   436  4.5918e-04  1.8337e-06  4.4765e-07  8.9738e-05  8.0538e-05  0:05:57 1564
   437  4.5954e-04  1.8299e-06  4.4832e-07  8.8778e-05  7.9930e-05  0:09:58 1563
   438  4.5306e-04  1.8245e-06  4.4641e-07  8.7806e-05  7.9310e-05  0:07:58 1562
   439  4.5418e-04  1.8220e-06  4.4854e-07  8.6835e-05  7.8697e-05  0:06:22 1561
   440  4.5049e-04  1.8154e-06  4.4569e-07  8.5892e-05  7.8086e-05  0:05:06 1560

  iter  continuity  x-velocity  y-velocity           k       omega     time/iter
   441  4.4986e-04  1.8112e-06  4.4733e-07  8.4946e-05  7.7485e-05  0:09:16 1559
   442  4.4251e-04  1.8076e-06  4.4631e-07  8.4005e-05  7.6838e-05  0:07:25 1558
   443  4.4268e-04  1.8047e-06  4.4625e-07  8.3070e-05  7.6242e-05  0:05:55 1557
   444  4.4139e-04  1.8000e-06  4.4532e-07  8.2142e-05  7.5628e-05  0:04:44 1556
   445  4.4258e-04  1.7967e-06  4.4602e-07  8.1223e-05  7.5044e-05  0:08:58 1555
   446  4.4164e-04  1.7939e-06  4.4649e-07  8.0310e-05  7.4432e-05  0:07:10 1554
   447  4.4020e-04  1.7884e-06  4.4483e-07  7.9410e-05  7.3855e-05  0:05:44 1553
   448  4.3717e-04  1.7852e-06  4.4665e-07  7.8540e-05  7.3273e-05  0:09:45 1552
   449  4.3633e-04  1.7810e-06  4.4473e-07  7.7677e-05  7.2719e-05  0:07:48 1551
   450  4.3818e-04  1.7803e-06  4.4692e-07  7.6805e-05  7.2163e-05  0:06:14 1550
   451  4.3409e-04  1.7740e-06  4.4206e-07  7.5946e-05  7.1613e-05  0:10:09 1549

  iter  continuity  x-velocity  y-velocity           k       omega     time/iter
   452  4.3867e-04  1.7700e-06  4.4402e-07  7.5088e-05  7.1086e-05  0:08:07 1548
   453  4.3104e-04  1.7643e-06  4.4151e-07  7.4249e-05  7.0554e-05  0:06:29 1547
   454  4.3901e-04  1.7659e-06  4.4417e-07  7.3396e-05  7.0026e-05  0:10:20 1546
   455  4.3145e-04  1.7580e-06  4.3778e-07  7.2573e-05  6.9493e-05  0:08:16 1545
   456  4.2982e-04  1.7520e-06  4.3936e-07  7.1756e-05  6.8962e-05  0:06:37 1544
   457  4.3468e-04  1.7507e-06  4.3978e-07  7.0941e-05  6.8425e-05  0:05:17 1543
   458  4.2731e-04  1.7435e-06  4.3498e-07  7.0135e-05  6.7907e-05  0:09:22 1542
   459  4.3078e-04  1.7381e-06  4.3600e-07  6.9335e-05  6.7382e-05  0:07:29 1541
   460  4.3127e-04  1.7345e-06  4.3375e-07  6.8548e-05  6.6864e-05  0:05:59 1540
   461  4.3154e-04  1.7309e-06  4.3162e-07  6.7778e-05  6.6355e-05  0:09:55 1539
   462  4.2992e-04  1.7270e-06  4.2967e-07  6.7016e-05  6.5838e-05  0:07:56 1538

  iter  continuity  x-velocity  y-velocity           k       omega     time/iter
   463  4.3436e-04  1.7251e-06  4.2893e-07  6.6273e-05  6.5329e-05  0:06:20 1537
   464  4.2863e-04  1.7197e-06  4.2570e-07  6.5519e-05  6.4824e-05  0:05:04 1536
   465  4.3257e-04  1.7158e-06  4.2438e-07  6.4783e-05  6.4337e-05  0:09:10 1535
   466  4.2999e-04  1.7110e-06  4.2205e-07  6.4041e-05  6.3851e-05  0:07:20 1534
   467  4.3158e-04  1.7080e-06  4.2059e-07  6.3307e-05  6.3364e-05  0:05:52 1533
   468  4.3260e-04  1.7034e-06  4.1720e-07  6.2572e-05  6.2865e-05  0:09:47 1532
   469  4.3473e-04  1.7004e-06  4.1583e-07  6.1857e-05  6.2376e-05  0:07:50 1531
   470  4.3402e-04  1.6956e-06  4.1236e-07  6.1153e-05  6.1876e-05  0:06:15 1530
   471  4.3548e-04  1.6929e-06  4.1117e-07  6.0461e-05  6.1391e-05  0:05:00 1529
   472  4.3343e-04  1.6879e-06  4.0641e-07  5.9783e-05  6.0915e-05  0:09:06 1528
   473  4.3410e-04  1.6838e-06  4.0445e-07  5.9120e-05  6.0449e-05  0:07:16 1527

  iter  continuity  x-velocity  y-velocity           k       omega     time/iter
   474  4.3622e-04  1.6800e-06  4.0211e-07  5.8459e-05  5.9989e-05  0:05:49 1526
   475  4.3194e-04  1.6749e-06  3.9715e-07  5.7796e-05  5.9541e-05  0:09:44 1525
   476  4.3369e-04  1.6712e-06  3.9578e-07  5.7145e-05  5.9068e-05  0:07:47 1524
   477  4.3416e-04  1.6673e-06  3.9256e-07  5.6501e-05  5.8620e-05  0:06:13 1523
   478  4.3582e-04  1.6640e-06  3.8908e-07  5.5855e-05  5.8183e-05  0:04:58 1522
   479  4.3334e-04  1.6583e-06  3.8437e-07  5.5221e-05  5.7777e-05  0:09:03 1521
   480  4.3923e-04  1.6539e-06  3.8233e-07  5.4593e-05  5.7309e-05  0:07:14 1520
   481  4.3626e-04  1.6505e-06  3.7995e-07  5.3966e-05  5.6930e-05  0:05:47 1519
   482  4.3998e-04  1.6467e-06  3.7495e-07  5.3346e-05  5.6508e-05  0:09:41 1518
   483  4.4296e-04  1.6424e-06  3.7362e-07  5.2739e-05  5.6119e-05  0:07:44 1517
   484  4.4623e-04  1.6383e-06  3.6880e-07  5.2123e-05  5.5732e-05  0:06:11 1516

  iter  continuity  x-velocity  y-velocity           k       omega     time/iter
   485  4.5319e-04  1.6348e-06  3.6655e-07  5.1503e-05  5.5337e-05  0:04:57 1515
   486  4.4745e-04  1.6299e-06  3.6065e-07  5.0904e-05  5.4943e-05  0:09:00 1514
   487  4.5962e-04  1.6288e-06  3.6109e-07  5.0316e-05  5.4558e-05  0:07:12 1513
   488  4.5305e-04  1.6224e-06  3.5203e-07  4.9745e-05  5.4176e-05  0:05:45 1512
   489  4.5423e-04  1.6164e-06  3.5030e-07  4.9166e-05  5.3792e-05  0:04:36 1511
   490  4.6608e-04  1.6137e-06  3.5266e-07  4.8592e-05  5.3414e-05  0:08:43 1510
   491  4.5862e-04  1.6081e-06  3.4228e-07  4.8055e-05  5.3040e-05  0:06:58 1509
   492  4.6229e-04  1.6030e-06  3.3977e-07  4.7520e-05  5.2674e-05  0:05:34 1508
   493  4.6769e-04  1.5987e-06  3.4021e-07  4.6978e-05  5.2300e-05  0:09:28 1507
   494  4.6072e-04  1.5930e-06  3.3236e-07  4.6433e-05  5.1923e-05  0:07:34 1506
   495  4.6539e-04  1.5881e-06  3.2992e-07  4.5900e-05  5.1555e-05  0:06:03 1505

  iter  continuity  x-velocity  y-velocity           k       omega     time/iter
   496  4.7087e-04  1.5844e-06  3.2782e-07  4.5377e-05  5.1183e-05  0:09:51 1504
   497  4.6635e-04  1.5786e-06  3.1975e-07  4.4846e-05  5.0814e-05  0:07:53 1503
   498  4.6839e-04  1.5728e-06  3.1718e-07  4.4317e-05  5.0453e-05  0:06:18 1502
   499  4.6952e-04  1.5683e-06  3.1675e-07  4.3795e-05  5.0097e-05  0:10:02 1501
   500  4.6739e-04  1.5623e-06  3.0854e-07  4.3273e-05  4.9750e-05  0:08:02 1500
   501  4.6650e-04  1.5562e-06  3.0606e-07  4.2746e-05  4.9400e-05  0:06:25 1499
   502  4.7230e-04  1.5520e-06  3.0421e-07  4.2243e-05  4.9068e-05  0:05:08 1498
   503  4.6587e-04  1.5456e-06  2.9623e-07  4.1734e-05  4.8729e-05  0:09:05 1497
   504  4.6902e-04  1.5394e-06  2.9383e-07  4.1236e-05  4.8396e-05  0:07:16 1496
   505  4.7619e-04  1.5343e-06  2.9259e-07  4.0731e-05  4.8077e-05  0:05:49 1495
   506  4.6752e-04  1.5280e-06  2.8488e-07  4.0246e-05  4.7759e-05  0:09:38 1494

  iter  continuity  x-velocity  y-velocity           k       omega     time/iter
   507  4.7354e-04  1.5227e-06  2.8227e-07  3.9779e-05  4.7452e-05  0:07:42 1493
   508  4.7635e-04  1.5176e-06  2.8099e-07  3.9319e-05  4.7143e-05  0:06:09 1492
   509  4.7321e-04  1.5127e-06  2.7367e-07  3.8868e-05  4.6852e-05  0:04:55 1491
   510  4.7474e-04  1.5074e-06  2.7119e-07  3.8418e-05  4.6555e-05  0:08:54 1490
   511  4.7871e-04  1.5030e-06  2.7058e-07  3.7976e-05  4.6265e-05  0:07:07 1489
   512  4.7352e-04  1.4973e-06  2.6333e-07  3.7540e-05  4.5980e-05  0:05:41 1488
   513  4.7317e-04  1.4912e-06  2.6161e-07  3.7115e-05  4.5704e-05  0:09:30 1487
   514  4.8092e-04  1.4875e-06  2.6337e-07  3.6695e-05  4.5422e-05  0:07:36 1486
   515  4.7276e-04  1.4811e-06  2.5407e-07  3.6289e-05  4.5145e-05  0:06:04 1485
   516  4.7190e-04  1.4759e-06  2.5228e-07  3.5892e-05  4.4866e-05  0:04:51 1484
   517  4.7487e-04  1.4708e-06  2.5084e-07  3.5487e-05  4.4602e-05  0:08:50 1483

  iter  continuity  x-velocity  y-velocity           k       omega     time/iter
   518  4.7821e-04  1.4671e-06  2.4919e-07  3.5093e-05  4.4333e-05  0:07:03 1482
   519  4.8041e-04  1.4627e-06  2.4531e-07  3.4714e-05  4.4064e-05  0:05:38 1481
   520  4.8036e-04  1.4579e-06  2.4355e-07  3.4333e-05  4.3807e-05  0:09:27 1480
   521  4.8262e-04  1.4531e-06  2.4185e-07  3.3958e-05  4.3557e-05  0:07:33 1479
   522  4.7928e-04  1.4474e-06  2.3747e-07  3.3580e-05  4.3304e-05  0:06:02 1478
   523  4.7587e-04  1.4418e-06  2.3590e-07  3.3211e-05  4.3034e-05  0:04:49 1477
   524  4.7651e-04  1.4369e-06  2.3372e-07  3.2841e-05  4.2775e-05  0:08:47 1476
   525  4.7572e-04  1.4319e-06  2.3186e-07  3.2489e-05  4.2530e-05  0:07:01 1475
   526  4.7771e-04  1.4268e-06  2.2954e-07  3.2137e-05  4.2282e-05  0:05:37 1474
   527  4.7181e-04  1.4204e-06  2.2736e-07  3.1781e-05  4.2046e-05  0:09:24 1473
   528  4.7505e-04  1.4152e-06  2.2624e-07  3.1438e-05  4.1820e-05  0:07:31 1472

  iter  continuity  x-velocity  y-velocity           k       omega     time/iter
   529  4.7248e-04  1.4106e-06  2.2374e-07  3.1096e-05  4.1597e-05  0:06:00 1471
   530  4.7370e-04  1.4046e-06  2.2240e-07  3.0763e-05  4.1366e-05  0:04:48 1470
   531  4.7147e-04  1.3997e-06  2.2108e-07  3.0429e-05  4.1147e-05  0:08:44 1469
   532  4.7181e-04  1.3941e-06  2.2003e-07  3.0094e-05  4.0921e-05  0:06:59 1468
   533  4.7123e-04  1.3885e-06  2.1869e-07  2.9764e-05  4.0708e-05  0:05:35 1467
   534  4.6938e-04  1.3829e-06  2.1714e-07  2.9444e-05  4.0488e-05  0:09:21 1466
   535  4.6910e-04  1.3775e-06  2.1629e-07  2.9122e-05  4.0277e-05  0:07:28 1465
   536  4.6937e-04  1.3724e-06  2.1446e-07  2.8808e-05  4.0055e-05  0:05:59 1464
   537  4.6567e-04  1.3670e-06  2.1322e-07  2.8493e-05  3.9833e-05  0:04:47 1463
   538  4.6675e-04  1.3613e-06  2.1069e-07  2.8182e-05  3.9613e-05  0:08:42 1462
   539  4.6705e-04  1.3560e-06  2.1201e-07  2.7882e-05  3.9411e-05  0:06:57 1461

  iter  continuity  x-velocity  y-velocity           k       omega     time/iter
   540  4.6584e-04  1.3503e-06  2.0927e-07  2.7582e-05  3.9213e-05  0:05:33 1460
   541  4.6643e-04  1.3457e-06  2.1081e-07  2.7289e-05  3.9019e-05  0:09:18 1459
   542  4.6278e-04  1.3402e-06  2.0858e-07  2.6999e-05  3.8824e-05  0:07:26 1458
   543  4.6739e-04  1.3359e-06  2.0957e-07  2.6710e-05  3.8641e-05  0:05:57 1457
   544  4.6321e-04  1.3315e-06  2.0721e-07  2.6431e-05  3.8453e-05  0:09:36 1456
   545  4.6683e-04  1.3267e-06  2.0733e-07  2.6153e-05  3.8272e-05  0:07:41 1455
   546  4.6849e-04  1.3229e-06  2.0711e-07  2.5878e-05  3.8092e-05  0:06:08 1454
   547  4.6673e-04  1.3193e-06  2.0884e-07  2.5604e-05  3.7922e-05  0:09:45 1453
   548  4.6490e-04  1.3142e-06  2.0632e-07  2.5344e-05  3.7749e-05  0:07:48 1452
   549  4.6533e-04  1.3104e-06  2.0817e-07  2.5082e-05  3.7579e-05  0:06:14 1451
   550  4.6468e-04  1.3069e-06  2.0558e-07  2.4819e-05  3.7412e-05  0:09:49 1450

  iter  continuity  x-velocity  y-velocity           k       omega     time/iter
   551  4.6631e-04  1.3033e-06  2.0703e-07  2.4567e-05  3.7250e-05  0:07:51 1449
   552  4.6419e-04  1.2993e-06  2.0450e-07  2.4320e-05  3.7095e-05  0:06:16 1448
   553  4.6260e-04  1.2949e-06  2.0560e-07  2.4073e-05  3.6937e-05  0:05:01 1447
   554  4.6188e-04  1.2898e-06  2.0363e-07  2.3840e-05  3.6788e-05  0:08:50 1446
   555  4.6256e-04  1.2862e-06  2.0507e-07  2.3609e-05  3.6637e-05  0:07:04 1445
   556  4.5832e-04  1.2820e-06  2.0250e-07  2.3382e-05  3.6493e-05  0:05:39 1444
   557  4.5893e-04  1.2781e-06  2.0358e-07  2.3162e-05  3.6351e-05  0:09:19 1443
   558  4.5485e-04  1.2733e-06  2.0174e-07  2.2940e-05  3.6210e-05  0:07:27 1442
   559  4.5318e-04  1.2698e-06  2.0253e-07  2.2707e-05  3.6074e-05  0:05:57 1441
   560  4.5195e-04  1.2655e-06  1.9984e-07  2.2491e-05  3.5937e-05  0:04:46 1440
   561  4.5213e-04  1.2626e-06  2.0065e-07  2.2273e-05  3.5800e-05  0:08:36 1439

  iter  continuity  x-velocity  y-velocity           k       omega     time/iter
   562  4.4458e-04  1.2580e-06  1.9871e-07  2.2064e-05  3.5654e-05  0:06:53 1438
   563  4.4569e-04  1.2540e-06  1.9794e-07  2.1864e-05  3.5521e-05  0:05:30 1437
   564  4.4252e-04  1.2500e-06  1.9716e-07  2.1657e-05  3.5383e-05  0:09:11 1436
   565  4.4135e-04  1.2474e-06  1.9653e-07  2.1463e-05  3.5255e-05  0:07:20 1435
   566  4.3701e-04  1.2431e-06  1.9622e-07  2.1278e-05  3.5125e-05  0:05:52 1434
   567  4.3677e-04  1.2394e-06  1.9563e-07  2.1096e-05  3.4993e-05  0:04:42 1433
   568  4.3447e-04  1.2355e-06  1.9551e-07  2.0914e-05  3.4869e-05  0:08:31 1432
   569  4.3064e-04  1.2313e-06  1.9456e-07  2.0738e-05  3.4743e-05  0:06:49 1431
   570  4.2931e-04  1.2272e-06  1.9384e-07  2.0567e-05  3.4621e-05  0:05:27 1430
   571  4.2798e-04  1.2229e-06  1.9372e-07  2.0404e-05  3.4500e-05  0:09:07 1429
   572  4.2809e-04  1.2190e-06  1.9300e-07  2.0241e-05  3.4383e-05  0:07:17 1428

  iter  continuity  x-velocity  y-velocity           k       omega     time/iter
   573  4.2850e-04  1.2150e-06  1.9255e-07  2.0077e-05  3.4267e-05  0:05:50 1427
   574  4.2905e-04  1.2101e-06  1.9282e-07  1.9924e-05  3.4157e-05  0:04:40 1426
   575  4.2814e-04  1.2061e-06  1.9181e-07  1.9773e-05  3.4048e-05  0:08:28 1425
   576  4.2544e-04  1.2014e-06  1.9156e-07  1.9606e-05  3.3938e-05  0:06:46 1424
   577  4.2298e-04  1.1972e-06  1.9065e-07  1.9428e-05  3.3836e-05  0:05:25 1423
   578  4.2049e-04  1.1924e-06  1.8960e-07  1.9257e-05  3.3730e-05  0:09:04 1422
   579  4.2195e-04  1.1887e-06  1.8834e-07  1.9081e-05  3.3625e-05  0:07:15 1421
   580  4.1990e-04  1.1857e-06  1.8749e-07  1.8915e-05  3.3525e-05  0:05:48 1420
   581  4.1911e-04  1.1819e-06  1.8670e-07  1.8744e-05  3.3417e-05  0:09:22 1419
   582  4.1720e-04  1.1788e-06  1.8597e-07  1.8569e-05  3.3272e-05  0:07:29 1418
   583  4.1626e-04  1.1747e-06  1.8598e-07  1.8394e-05  3.3133e-05  0:05:59 1417

  iter  continuity  x-velocity  y-velocity           k       omega     time/iter
   584  4.1220e-04  1.1706e-06  1.8487e-07  1.8239e-05  3.2993e-05  0:04:47 1416
   585  4.1249e-04  1.1670e-06  1.8407e-07  1.8085e-05  3.2861e-05  0:08:32 1415
   586  4.1146e-04  1.1630e-06  1.8356e-07  1.7930e-05  3.2728e-05  0:06:50 1414
   587  4.0699e-04  1.1588e-06  1.8246e-07  1.7782e-05  3.2595e-05  0:05:28 1413
   588  4.0479e-04  1.1541e-06  1.8126e-07  1.7636e-05  3.2463e-05  0:09:04 1412
   589  4.0523e-04  1.1501e-06  1.8027e-07  1.7493e-05  3.2335e-05  0:07:15 1411
   590  4.0081e-04  1.1459e-06  1.7939e-07  1.7350e-05  3.2210e-05  0:05:48 1410
   591  4.0140e-04  1.1416e-06  1.7886e-07  1.7210e-05  3.2094e-05  0:09:20 1409
   592  3.9883e-04  1.1372e-06  1.7833e-07  1.7070e-05  3.1969e-05  0:07:28 1408
   593  3.9619e-04  1.1331e-06  1.7715e-07  1.6931e-05  3.1856e-05  0:05:58 1407
   594  3.9401e-04  1.1295e-06  1.7603e-07  1.6792e-05  3.1732e-05  0:09:27 1406

  iter  continuity  x-velocity  y-velocity           k       omega     time/iter
   595  3.9296e-04  1.1249e-06  1.7553e-07  1.6645e-05  3.1623e-05  0:07:33 1405
   596  3.9005e-04  1.1201e-06  1.7489e-07  1.6501e-05  3.1504e-05  0:06:03 1404
   597  3.9077e-04  1.1170e-06  1.7381e-07  1.6355e-05  3.1395e-05  0:04:50 1403
   598  3.8529e-04  1.1131e-06  1.7330e-07  1.6208e-05  3.1281e-05  0:08:32 1402
   599  3.8482e-04  1.1084e-06  1.7180e-07  1.6073e-05  3.1173e-05  0:06:49 1401
   600  3.8308e-04  1.1043e-06  1.7071e-07  1.5931e-05  3.1065e-05  0:05:27 1400
   601  3.7864e-04  1.1001e-06  1.7001e-07  1.5795e-05  3.0956e-05  0:09:01 1399
   602  3.7850e-04  1.0950e-06  1.6871e-07  1.5662e-05  3.0846e-05  0:07:13 1398
   603  3.7693e-04  1.0906e-06  1.6759e-07  1.5521e-05  3.0742e-05  0:05:46 1397
   604  3.7681e-04  1.0856e-06  1.6697e-07  1.5389e-05  3.0635e-05  0:04:37 1396
   605  3.7373e-04  1.0817e-06  1.6663e-07  1.5255e-05  3.0538e-05  0:08:20 1395

  iter  continuity  x-velocity  y-velocity           k       omega     time/iter
   606  3.7353e-04  1.0773e-06  1.6533e-07  1.5120e-05  3.0431e-05  0:06:40 1394
   607  3.7109e-04  1.0726e-06  1.6434e-07  1.4991e-05  3.0336e-05  0:05:20 1393
   608  3.6958e-04  1.0679e-06  1.6126e-07  1.4863e-05  3.0231e-05  0:08:54 1392
   609  3.7043e-04  1.0635e-06  1.6381e-07  1.4734e-05  3.0139e-05  0:07:07 1391
   610  3.6719e-04  1.0586e-06  1.5997e-07  1.4610e-05  3.0037e-05  0:05:41 1390
   611  3.6506e-04  1.0549e-06  1.6151e-07  1.4476e-05  2.9938e-05  0:04:33 1389
   612  3.6429e-04  1.0503e-06  1.5817e-07  1.4342e-05  2.9841e-05  0:08:16 1388
   613  3.6264e-04  1.0466e-06  1.5782e-07  1.4212e-05  2.9751e-05  0:06:36 1387
   614  3.6137e-04  1.0424e-06  1.5674e-07  1.4085e-05  2.9647e-05  0:05:17 1386
   615  3.6413e-04  1.0383e-06  1.5604e-07  1.3960e-05  2.9556e-05  0:04:13 1385
   616  3.6157e-04  1.0339e-06  1.5639e-07  1.3832e-05  2.9455e-05  0:07:59 1384

  iter  continuity  x-velocity  y-velocity           k       omega     time/iter
   617  3.6185e-04  1.0301e-06  1.5605e-07  1.3712e-05  2.9362e-05  0:06:23 1383
   618  3.5813e-04  1.0250e-06  1.5601e-07  1.3590e-05  2.9265e-05  0:05:06 1382
   619  3.5868e-04  1.0214e-06  1.5521e-07  1.3464e-05  2.9174e-05  0:08:41 1381
   620  3.5921e-04  1.0175e-06  1.5447e-07  1.3344e-05  2.9077e-05  0:06:57 1380
   621  3.5718e-04  1.0131e-06  1.5390e-07  1.3228e-05  2.8987e-05  0:05:33 1379
   622  3.6102e-04  1.0104e-06  1.5563e-07  1.3108e-05  2.8890e-05  0:04:26 1378
   623  3.5683e-04  1.0053e-06  1.5180e-07  1.2997e-05  2.8805e-05  0:08:08 1377
   624  3.5783e-04  1.0018e-06  1.5369e-07  1.2877e-05  2.8711e-05  0:06:30 1376
   625  3.5302e-04  9.9673e-07  1.5091e-07  1.2759e-05  2.8622e-05  0:05:12 1375
   626  3.5375e-04  9.9283e-07  1.5231e-07  1.2647e-05  2.8530e-05  0:08:44 1374
   627  3.5278e-04  9.8720e-07  1.4926e-07  1.2527e-05  2.8440e-05  0:06:59 1373

  iter  continuity  x-velocity  y-velocity           k       omega     time/iter
   628  3.4983e-04  9.8262e-07  1.4896e-07  1.2413e-05  2.8350e-05  0:05:35 1372
   629  3.5146e-04  9.7819e-07  1.5009e-07  1.2296e-05  2.8260e-05  0:04:28 1371
   630  3.5029e-04  9.7376e-07  1.4639e-07  1.2173e-05  2.8167e-05  0:08:08 1370
   631  3.4660e-04  9.6922e-07  1.4596e-07  1.2055e-05  2.8083e-05  0:06:30 1369
   632  3.4729e-04  9.6512e-07  1.4586e-07  1.1941e-05  2.7992e-05  0:05:12 1368
   633  3.4361e-04  9.6074e-07  1.4453e-07  1.1820e-05  2.7901e-05  0:08:43 1367
   634  3.4628e-04  9.5684e-07  1.4629e-07  1.1700e-05  2.7810e-05  0:06:58 1366
   635  3.4637e-04  9.5322e-07  1.4444e-07  1.1590e-05  2.7724e-05  0:05:34 1365
   636  3.4211e-04  9.4989e-07  1.4322e-07  1.1469e-05  2.7633e-05  0:09:00 1364
   637  3.4409e-04  9.4662e-07  1.4215e-07  1.1359e-05  2.7544e-05  0:07:12 1363
   638  3.4374e-04  9.4278e-07  1.4104e-07  1.1243e-05  2.7451e-05  0:05:45 1362

  iter  continuity  x-velocity  y-velocity           k       omega     time/iter
   639  3.4135e-04  9.3913e-07  1.4043e-07  1.1126e-05  2.7362e-05  0:04:36 1361
   640  3.4023e-04  9.3437e-07  1.3827e-07  1.1015e-05  2.7271e-05  0:08:12 1360
   641  3.3902e-04  9.2991e-07  1.4024e-07  1.0902e-05  2.7184e-05  0:06:34 1359
   642  3.3705e-04  9.2638e-07  1.3740e-07  1.0789e-05  2.7091e-05  0:05:15 1358
   643  3.3668e-04  9.2278e-07  1.3933e-07  1.0674e-05  2.7008e-05  0:08:43 1357
   644  3.3452e-04  9.1817e-07  1.3645e-07  1.0567e-05  2.6914e-05  0:06:58 1356
   645  3.3461e-04  9.1397e-07  1.3837e-07  1.0453e-05  2.6829e-05  0:05:34 1355
   646  3.3300e-04  9.0957e-07  1.3542e-07  1.0345e-05  2.6739e-05  0:04:27 1354
   647  3.3207e-04  9.0458e-07  1.3519e-07  1.0239e-05  2.6655e-05  0:08:04 1353
   648  3.3195e-04  9.0013e-07  1.3366e-07  1.0129e-05  2.6556e-05  0:06:27 1352
   649  3.2874e-04  8.9660e-07  1.3321e-07  1.0022e-05  2.6459e-05  0:05:09 1351

  iter  continuity  x-velocity  y-velocity           k       omega     time/iter
   650  3.2598e-04  8.9307e-07  1.3202e-07  9.9165e-06  2.6363e-05  0:08:37 1350
   651  3.2390e-04  8.8994e-07  1.3123e-07  9.8130e-06  2.6278e-05  0:06:54 1349
   652  3.2622e-04  8.8618e-07  1.3112e-07  9.7002e-06  2.6181e-05  0:05:31 1348
   653  3.2483e-04  8.8327e-07  1.3098e-07  9.5944e-06  2.6103e-05  0:04:24 1347
   654  3.2609e-04  8.8009e-07  1.3072e-07  9.4986e-06  2.6004e-05  0:08:00 1346
   655  3.2362e-04  8.7707e-07  1.3077e-07  9.3972e-06  2.5916e-05  0:06:24 1345
   656  3.2413e-04  8.7363e-07  1.3041e-07  9.2831e-06  2.5823e-05  0:05:07 1344
   657  3.2057e-04  8.6917e-07  1.2994e-07  9.1829e-06  2.5736e-05  0:08:34 1343
   658  3.2043e-04  8.6558e-07  1.2958e-07  9.0830e-06  2.5641e-05  0:06:51 1342
   659  3.1884e-04  8.6215e-07  1.2855e-07  8.9841e-06  2.5552e-05  0:05:29 1341
   660  3.1749e-04  8.5915e-07  1.2789e-07  8.8796e-06  2.5457e-05  0:04:23 1340

  iter  continuity  x-velocity  y-velocity           k       omega     time/iter
   661  3.2016e-04  8.5522e-07  1.2685e-07  8.7843e-06  2.5368e-05  0:07:58 1339
   662  3.1828e-04  8.5142e-07  1.2717e-07  8.6779e-06  2.5275e-05  0:06:22 1338
   663  3.1753e-04  8.4770e-07  1.2680e-07  8.5798e-06  2.5185e-05  0:05:05 1337
   664  3.1809e-04  8.4510e-07  1.2603e-07  8.4814e-06  2.5090e-05  0:04:04 1336
   665  3.1612e-04  8.4207e-07  1.2610e-07  8.3801e-06  2.4999e-05  0:07:42 1335
   666  3.1407e-04  8.3816e-07  1.2496e-07  8.2818e-06  2.4903e-05  0:06:09 1334
   667  3.1392e-04  8.3530e-07  1.2461e-07  8.1847e-06  2.4810e-05  0:04:55 1333
   668  3.1324e-04  8.3204e-07  1.2452e-07  8.0812e-06  2.4715e-05  0:08:22 1332
   669  3.1485e-04  8.2888e-07  1.2388e-07  7.9892e-06  2.4620e-05  0:06:42 1331
   670  3.1294e-04  8.2507e-07  1.2347e-07  7.8915e-06  2.4524e-05  0:05:21 1330
   671  3.1330e-04  8.2203e-07  1.2296e-07  7.7984e-06  2.4435e-05  0:04:17 1329

  iter  continuity  x-velocity  y-velocity           k       omega     time/iter
   672  3.1201e-04  8.1850e-07  1.2242e-07  7.6978e-06  2.4336e-05  0:07:51 1328
   673  3.1178e-04  8.1573e-07  1.2226e-07  7.5996e-06  2.4241e-05  0:06:16 1327
   674  3.1105e-04  8.1273e-07  1.2123e-07  7.4949e-06  2.4146e-05  0:05:01 1326
   675  3.1066e-04  8.0946e-07  1.2050e-07  7.3974e-06  2.4058e-05  0:08:25 1325
   676  3.0998e-04  8.0604e-07  1.2056e-07  7.3011e-06  2.3958e-05  0:06:44 1324
   677  3.0957e-04  8.0261e-07  1.2034e-07  7.2120e-06  2.3867e-05  0:05:23 1323
   678  3.0813e-04  7.9860e-07  1.1984e-07  7.1161e-06  2.3768e-05  0:08:43 1322
   679  3.1104e-04  7.9531e-07  1.1951e-07  7.0232e-06  2.3673e-05  0:06:58 1321
   680  3.1121e-04  7.9220e-07  1.1910e-07  6.9277e-06  2.3575e-05  0:05:34 1320
   681  3.0812e-04  7.9014e-07  1.1846e-07  6.8306e-06  2.3482e-05  0:08:51 1319
   682  3.0854e-04  7.8629e-07  1.1782e-07  6.7387e-06  2.3381e-05  0:07:04 1318

  iter  continuity  x-velocity  y-velocity           k       omega     time/iter
   683  3.0874e-04  7.8320e-07  1.1716e-07  6.6441e-06  2.3287e-05  0:05:39 1317
   684  3.0834e-04  7.8049e-07  1.1715e-07  6.5565e-06  2.3190e-05  0:04:31 1316
   685  3.0908e-04  7.7745e-07  1.1664e-07  6.4716e-06  2.3092e-05  0:08:00 1315
   686  3.0972e-04  7.7500e-07  1.1603e-07  6.3899e-06  2.2993e-05  0:06:24 1314
   687  3.0998e-04  7.7202e-07  1.1586e-07  6.2940e-06  2.2900e-05  0:05:07 1313
   688  3.0675e-04  7.6939e-07  1.1559e-07  6.2071e-06  2.2794e-05  0:08:27 1312
   689  3.0633e-04  7.6695e-07  1.1492e-07  6.1126e-06  2.2698e-05  0:06:46 1311
   690  3.0675e-04  7.6432e-07  1.1493e-07  6.0296e-06  2.2602e-05  0:05:24 1310
   691  3.0651e-04  7.6103e-07  1.1444e-07  5.9460e-06  2.2510e-05  0:04:19 1309
   692  3.0141e-04  7.5895e-07  1.1453e-07  5.8677e-06  2.2410e-05  0:07:49 1308
   693  3.0387e-04  7.5531e-07  1.1394e-07  5.7737e-06  2.2313e-05  0:06:15 1307

  iter  continuity  x-velocity  y-velocity           k       omega     time/iter
   694  3.0152e-04  7.5300e-07  1.1372e-07  5.6910e-06  2.2213e-05  0:05:00 1306
   695  3.0008e-04  7.4992e-07  1.1353e-07  5.6215e-06  2.2120e-05  0:03:59 1305
   696  2.9826e-04  7.4786e-07  1.1281e-07  5.5415e-06  2.2023e-05  0:07:32 1304
   697  2.9861e-04  7.4440e-07  1.1245e-07  5.4748e-06  2.1931e-05  0:06:02 1303
   698  2.9522e-04  7.4057e-07  1.1188e-07  5.4105e-06  2.1837e-05  0:04:49 1302
   699  2.9212e-04  7.3759e-07  1.1118e-07  5.3499e-06  2.1751e-05  0:08:11 1301
   700  2.9306e-04  7.3589e-07  1.1036e-07  5.2883e-06  2.1665e-05  0:06:33 1300
   701  2.9065e-04  7.3333e-07  1.0948e-07  5.2273e-06  2.1584e-05  0:05:14 1299
   702  2.8949e-04  7.3063e-07  1.0909e-07  5.1677e-06  2.1490e-05  0:04:11 1298
   703  2.8919e-04  7.2788e-07  1.0846e-07  5.1112e-06  2.1409e-05  0:07:40 1297
   704  2.8803e-04  7.2509e-07  1.0882e-07  5.0512e-06  2.1321e-05  0:06:08 1296

  iter  continuity  x-velocity  y-velocity           k       omega     time/iter
   705  2.9192e-04  7.2207e-07  1.0846e-07  4.9911e-06  2.1235e-05  0:04:54 1295
   706  2.8644e-04  7.1946e-07  1.0807e-07  4.9368e-06  2.1143e-05  0:08:14 1294
   707  2.8739e-04  7.1594e-07  1.0798e-07  4.8805e-06  2.1062e-05  0:06:35 1293
   708  2.8674e-04  7.1360e-07  1.0734e-07  4.8282e-06  2.0964e-05  0:05:16 1292
   709  2.8545e-04  7.1141e-07  1.0712e-07  4.7841e-06  2.0881e-05  0:04:12 1291
   710  2.8667e-04  7.0844e-07  1.0653e-07  4.7310e-06  2.0791e-05  0:07:40 1290
   711  2.8451e-04  7.0586e-07  1.0639e-07  4.6880e-06  2.0707e-05  0:06:07 1289
   712  2.8242e-04  7.0337e-07  1.0613e-07  4.6465e-06  2.0613e-05  0:04:54 1288
   713  2.8459e-04  7.0061e-07  1.0558e-07  4.6069e-06  2.0529e-05  0:03:55 1287
   714  2.8062e-04  6.9852e-07  1.0546e-07  4.5687e-06  2.0441e-05  0:07:25 1286
   715  2.7994e-04  6.9605e-07  1.0528e-07  4.5302e-06  2.0356e-05  0:05:56 1285

  iter  continuity  x-velocity  y-velocity           k       omega     time/iter
   716  2.8052e-04  6.9308e-07  1.0511e-07  4.4946e-06  2.0267e-05  0:04:44 1284
   717  2.8234e-04  6.9083e-07  1.0504e-07  4.4587e-06  2.0179e-05  0:08:04 1283
   718  2.8175e-04  6.8981e-07  1.0458e-07  4.4225e-06  2.0093e-05  0:06:27 1282
   719  2.8061e-04  6.8634e-07  1.0405e-07  4.3912e-06  1.9999e-05  0:05:09 1281
   720  2.8204e-04  6.8416e-07  1.0390e-07  4.3665e-06  1.9911e-05  0:08:23 1280
   721  2.8060e-04  6.8210e-07  1.0366e-07  4.3421e-06  1.9831e-05  0:06:42 1279
   722  2.7772e-04  6.8052e-07  1.0365e-07  4.3220e-06  1.9738e-05  0:05:22 1278
   723  2.7858e-04  6.7776e-07  1.0364e-07  4.3072e-06  1.9654e-05  0:04:17 1277
   724  2.7801e-04  6.7620e-07  1.0356e-07  4.2869e-06  1.9557e-05  0:07:41 1276
   725  2.7821e-04  6.7383e-07  1.0339e-07  4.2725e-06  1.9470e-05  0:06:08 1275
   726  2.7552e-04  6.7126e-07  1.0304e-07  4.2653e-06  1.9380e-05  0:09:09 1274

  iter  continuity  x-velocity  y-velocity           k       omega     time/iter
   727  2.7483e-04  6.6930e-07  1.0277e-07  4.2656e-06  1.9289e-05  0:07:19 1273
   728  2.7323e-04  6.6758e-07  1.0263e-07  4.2493e-06  1.9191e-05  0:05:51 1272
   729  2.7430e-04  6.6657e-07  1.0257e-07  4.2205e-06  1.9103e-05  0:04:41 1271
   730  2.7058e-04  6.6454e-07  1.0277e-07  4.2061e-06  1.9011e-05  0:07:58 1270
   731  2.7484e-04  6.6179e-07  1.0334e-07  4.1905e-06  1.8921e-05  0:06:22 1269
[...]
  1818  1.4383e-04  8.7009e-08  2.1258e-08  6.7046e-07  1.5736e-07  0:00:47  182
  1819  1.4601e-04  8.6887e-08  2.1289e-08  6.5903e-07  1.6380e-07  0:00:37  181
  1820  1.4678e-04  8.7051e-08  2.1647e-08  6.5264e-07  1.5767e-07  0:00:30  180
  1821  1.4661e-04  8.7443e-08  2.1441e-08  6.4996e-07  1.6002e-07  0:00:24  179
  1822  1.4717e-04  8.6156e-08  2.1623e-08  6.5697e-07  1.5853e-07  0:00:19  178
  1823  1.4877e-04  8.5970e-08  2.1363e-08  6.7153e-07  1.5931e-07  0:00:15  177
  1824  1.4415e-04  8.5885e-08  2.1478e-08  6.8363e-07  1.5675e-07  0:00:47  176
  1825  1.4517e-04  8.5494e-08  2.1141e-08  6.9180e-07  1.6151e-07  0:00:37  175
  1826  1.4528e-04  8.5069e-08  2.1169e-08  7.0100e-07  1.5627e-07  0:00:30  174

  iter  continuity  x-velocity  y-velocity           k       omega     time/iter
  1827  1.4464e-04  8.5455e-08  2.1194e-08  7.0059e-07  1.6099e-07  0:00:24  173
  1828  1.4312e-04  8.4701e-08  2.0717e-08  7.0540e-07  1.5604e-07  0:00:19  172
  1829  1.4510e-04  8.3860e-08  2.0555e-08  7.1338e-07  1.6428e-07  0:00:15  171
  1830  1.4406e-04  8.4545e-08  2.0512e-08  7.0979e-07  1.5268e-07  0:00:46  170
  1831  1.4380e-04  8.3574e-08  2.0698e-08  6.9605e-07  1.6154e-07  0:00:37  169
  1832  1.4565e-04  8.3545e-08  2.0541e-08  6.8569e-07  1.5735e-07  0:00:29  168
  1833  1.4261e-04  8.4433e-08  2.0645e-08  6.7794e-07  1.5574e-07  0:00:23  167
  1834  1.4328e-04  8.4121e-08  2.0371e-08  6.7783e-07  1.6242e-07  0:00:18  166
  1835  1.4461e-04  8.4364e-08  2.0440e-08  6.8618e-07  1.5862e-07  0:00:48  165
  1836  1.4322e-04  8.3667e-08  2.0536e-08  6.9910e-07  1.5370e-07  0:00:38  164
  1837  1.4389e-04  8.3775e-08  2.0539e-08  6.9797e-07  1.6144e-07  0:00:30  163

  iter  continuity  x-velocity  y-velocity           k       omega     time/iter
  1838  1.4216e-04  8.3031e-08  2.0252e-08  7.0198e-07  1.5629e-07  0:00:24  162
  1839  1.4237e-04  8.4074e-08  2.0259e-08  7.0502e-07  1.5673e-07  0:00:19  161
  1840  1.4554e-04  8.3572e-08  2.0234e-08  7.0925e-07  1.5676e-07  0:00:15  160
  1841  1.4220e-04  8.3810e-08  2.0355e-08  7.0775e-07  1.5724e-07  0:00:44  159
  1842  1.4080e-04  8.3100e-08  2.0284e-08  6.9178e-07  1.5290e-07  0:00:35  158
  1843  1.4085e-04  8.3279e-08  1.9997e-08  6.7907e-07  1.5799e-07  0:00:28  157
  1844  1.4257e-04  8.3666e-08  2.0251e-08  6.6369e-07  1.5338e-07  0:00:22  156
  1845  1.4169e-04  8.3536e-08  2.0342e-08  6.4422e-07  1.5562e-07  0:00:17  155
  1846  1.4382e-04  8.2763e-08  2.0262e-08  6.3606e-07  1.5450e-07  0:00:14  154
  1847  1.4504e-04  8.3504e-08  2.0561e-08  6.3005e-07  1.5613e-07  0:00:42  153
  1848  1.4339e-04  8.3788e-08  2.0699e-08  6.3156e-07  1.4971e-07  0:00:33  152

  iter  continuity  x-velocity  y-velocity           k       omega     time/iter
  1849  1.4209e-04  8.2889e-08  2.0309e-08  6.3673e-07  1.5560e-07  0:00:26  151
  1850  1.4404e-04  8.4229e-08  2.0215e-08  6.4441e-07  1.5101e-07  0:00:21  150
  1851  1.4257e-04  8.3220e-08  2.0213e-08  6.5959e-07  1.5077e-07  0:00:17  149
  1852  1.4430e-04  8.2863e-08  2.0356e-08  6.7209e-07  1.5425e-07  0:00:13  148
  1853  1.4361e-04  8.3333e-08  2.0529e-08  6.7624e-07  1.5595e-07  0:00:10  147
  1854  1.4461e-04  8.3123e-08  2.0222e-08  6.7650e-07  1.4986e-07  0:00:38  146
  1855  1.4471e-04  8.2827e-08  2.0371e-08  6.7821e-07  1.5544e-07  0:00:30  145
  1856  1.4596e-04  8.3584e-08  2.0488e-08  6.8328e-07  1.5363e-07  0:00:24  144
  1857  1.4665e-04  8.2973e-08  2.0479e-08  6.7342e-07  1.5000e-07  0:00:19  143
  1858  1.4605e-04  8.2927e-08  2.0449e-08  6.6216e-07  1.5251e-07  0:00:15  142
  1859  1.4446e-04  8.2896e-08  2.0715e-08  6.4902e-07  1.5233e-07  0:00:12  141

  iter  continuity  x-velocity  y-velocity           k       omega     time/iter
  1860  1.4428e-04  8.1958e-08  2.0622e-08  6.4840e-07  1.4951e-07  0:00:37  140
  1861  1.4502e-04  8.3250e-08  2.0762e-08  6.4820e-07  1.5428e-07  0:00:30  139
  1862  1.4574e-04  8.3289e-08  2.0898e-08  6.5495e-07  1.5259e-07  0:00:24  138
  1863  1.4705e-04  8.4110e-08  2.1114e-08  6.6685e-07  1.5204e-07  0:00:19  137
  1864  1.4769e-04  8.2634e-08  2.1206e-08  6.7939e-07  1.5256e-07  0:00:15  136
  1865  1.4620e-04  8.3234e-08  2.1100e-08  6.9011e-07  1.5336e-07  0:00:12  135
  1866  1.4328e-04  8.1832e-08  2.0980e-08  6.9566e-07  1.5008e-07  0:00:36  134
  1867  1.4268e-04  8.1476e-08  2.0821e-08  6.9779e-07  1.5446e-07  0:00:29  133
  1868  1.4305e-04  8.2029e-08  2.0380e-08  6.8076e-07  1.4899e-07  0:00:23  132
  1869  1.4291e-04  8.1606e-08  2.0366e-08  6.6339e-07  1.5052e-07  0:00:18  131
  1870  1.4756e-04  8.1575e-08  2.0086e-08  6.4982e-07  1.5652e-07  0:00:14  130

  iter  continuity  x-velocity  y-velocity           k       omega     time/iter
  1871  1.4347e-04  8.1114e-08  2.0341e-08  6.3612e-07  1.5659e-07  0:00:11  129
  1872  1.4285e-04  8.0964e-08  2.0375e-08  6.2568e-07  1.4922e-07  0:00:09  128
  1873  1.4083e-04  8.0625e-08  2.0286e-08  6.2044e-07  1.5726e-07  0:00:33  127
  1874  1.4288e-04  8.0244e-08  2.0220e-08  6.2556e-07  1.5248e-07  0:00:26  126
  1875  1.4239e-04  7.9583e-08  2.0126e-08  6.2945e-07  1.5128e-07  0:00:21  125
  1876  1.4209e-04  7.9818e-08  1.9869e-08  6.3063e-07  1.5078e-07  0:00:16  124
  1877  1.4271e-04  7.9675e-08  1.9907e-08  6.4048e-07  1.4924e-07  0:00:38  123
  1878  1.4355e-04  7.9329e-08  2.0086e-08  6.5592e-07  1.4944e-07  0:00:30  122
  1879  1.4014e-04  7.9047e-08  1.9858e-08  6.6334e-07  1.4899e-07  0:00:24  121
  1880  1.4273e-04  7.8826e-08  1.9493e-08  6.7031e-07  1.5112e-07  0:00:19  120
  1881  1.4211e-04  7.9364e-08  1.9851e-08  6.7229e-07  1.4840e-07  0:00:15  119

  iter  continuity  x-velocity  y-velocity           k       omega     time/iter
  1882  1.4094e-04  7.9278e-08  1.9936e-08  6.7439e-07  1.4811e-07  0:00:12  118
  1883  1.4080e-04  7.8787e-08  1.9949e-08  6.7319e-07  1.5043e-07  0:00:09  117
  1884  1.4109e-04  7.8673e-08  1.9806e-08  6.8254e-07  1.4484e-07  0:00:31  116
  1885  1.4320e-04  7.8694e-08  1.9707e-08  6.8407e-07  1.5061e-07  0:00:24  115
  1886  1.4157e-04  7.9731e-08  1.9935e-08  6.8160e-07  1.4636e-07  0:00:19  114
  1887  1.4382e-04  7.9736e-08  1.9565e-08  6.7771e-07  1.4536e-07  0:00:15  113
  1888  1.4435e-04  7.9539e-08  1.9837e-08  6.7934e-07  1.4818e-07  0:00:12  112
  1889  1.4357e-04  7.8917e-08  2.0115e-08  6.8200e-07  1.5223e-07  0:00:10  111
  1890  1.4474e-04  7.9252e-08  1.9954e-08  6.9775e-07  1.4494e-07  0:00:30  110
  1891  1.4274e-04  7.8479e-08  1.9993e-08  7.2739e-07  1.4892e-07  0:00:23  109
  1892  1.4425e-04  7.9333e-08  1.9974e-08  7.3984e-07  1.4560e-07  0:00:19  108

  iter  continuity  x-velocity  y-velocity           k       omega     time/iter
  1893  1.4284e-04  7.8773e-08  2.0258e-08  7.2762e-07  1.4589e-07  0:00:15  107
  1894  1.4237e-04  7.8532e-08  2.0062e-08  7.1532e-07  1.4529e-07  0:00:12  106
  1895  1.4221e-04  7.9166e-08  2.0127e-08  6.9878e-07  1.4449e-07  0:00:09  105
  1896  1.4200e-04  7.9250e-08  2.0006e-08  6.8336e-07  1.4342e-07  0:00:28  104
  1897  1.4195e-04  7.8380e-08  1.9937e-08  6.7352e-07  1.4374e-07  0:00:22  103
  1898  1.4167e-04  7.8221e-08  1.9911e-08  6.8848e-07  1.4544e-07  0:00:18  102
  1899  1.4336e-04  7.8655e-08  2.0015e-08  7.1894e-07  1.4590e-07  0:00:14  101
  1900  1.4372e-04  7.8946e-08  2.0224e-08  7.1967e-07  1.4292e-07  0:00:11  100
  1901  1.4266e-04  7.7776e-08  1.9759e-08  7.2314e-07  1.4782e-07  0:00:09   99
  1902  1.4228e-04  7.9261e-08  1.9837e-08  7.1246e-07  1.4305e-07  0:00:07   98
  1903  1.4450e-04  7.9066e-08  1.9872e-08  6.9120e-07  1.4555e-07  0:00:25   97

  iter  continuity  x-velocity  y-velocity           k       omega     time/iter
  1904  1.4486e-04  7.8332e-08  2.0129e-08  6.7876e-07  1.4658e-07  0:00:20   96
  1905  1.4650e-04  7.9374e-08  2.0342e-08  6.9623e-07  1.4681e-07  0:00:16   95
  1906  1.4571e-04  7.9581e-08  2.0538e-08  7.3624e-07  1.4303e-07  0:00:12   94
  1907  1.4307e-04  7.9403e-08  2.0220e-08  7.7294e-07  1.4828e-07  0:00:10   93
  1908  1.4470e-04  7.7981e-08  2.0143e-08  7.7830e-07  1.4389e-07  0:00:08   92
  1909  1.4836e-04  7.8465e-08  2.0267e-08  7.8993e-07  1.4504e-07  0:00:24   91
  1910  1.4366e-04  7.7932e-08  2.0498e-08  8.0775e-07  1.4397e-07  0:00:19   90
  1911  1.4537e-04  7.7843e-08  2.0164e-08  8.3210e-07  1.4699e-07  0:00:15   89
  1912  1.4218e-04  7.7598e-08  2.0101e-08  8.4983e-07  1.4636e-07  0:00:12   88
  1913  1.4267e-04  7.7199e-08  2.0053e-08  8.7731e-07  1.4722e-07  0:00:10   87
  1914  1.4298e-04  7.8185e-08  1.9793e-08  8.5073e-07  1.4407e-07  0:00:08   86

  iter  continuity  x-velocity  y-velocity           k       omega     time/iter
  1915  1.3955e-04  7.7148e-08  1.9765e-08  8.2571e-07  1.4601e-07  0:00:23   85
  1916  1.4046e-04  7.7342e-08  1.9570e-08  8.4709e-07  1.4513e-07  0:00:18   84
  1917  1.4090e-04  7.6368e-08  1.9718e-08  8.6166e-07  1.4598e-07  0:00:14   83
  1918  1.4180e-04  7.6007e-08  1.9660e-08  8.4943e-07  1.4260e-07  0:00:11   82
  1919  1.3938e-04  7.5957e-08  1.9498e-08  8.3530e-07  1.4506e-07  0:00:09   81
  1920  1.4303e-04  7.6382e-08  1.9347e-08  8.0967e-07  1.4658e-07  0:00:07   80
  1921  1.4012e-04  7.5748e-08  1.9826e-08  7.7975e-07  1.4657e-07  0:00:21   79
  1922  1.3995e-04  7.5827e-08  1.9838e-08  7.4230e-07  1.4309e-07  0:00:17   78
  1923  1.4040e-04  7.5505e-08  1.9490e-08  7.2216e-07  1.4824e-07  0:00:13   77
  1924  1.4142e-04  7.5344e-08  1.9232e-08  7.3104e-07  1.4296e-07  0:00:11   76
  1925  1.3963e-04  7.5718e-08  1.9364e-08  7.5856e-07  1.4478e-07  0:00:08   75

  iter  continuity  x-velocity  y-velocity           k       omega     time/iter
  1926  1.4212e-04  7.5543e-08  1.9319e-08  7.6488e-07  1.4285e-07  0:00:21   74
  1927  1.4259e-04  7.4875e-08  1.9410e-08  7.6806e-07  1.4339e-07  0:00:17   73
  1928  1.4143e-04  7.5167e-08  1.9872e-08  7.8284e-07  1.3807e-07  0:00:13   72
  1929  1.4158e-04  7.5468e-08  1.9553e-08  7.8731e-07  1.4354e-07  0:00:10   71
  1930  1.4284e-04  7.4409e-08  1.9513e-08  7.8605e-07  1.4062e-07  0:00:08   70
  1931  1.4242e-04  7.5200e-08  1.9585e-08  8.3074e-07  1.4158e-07  0:00:07   69
  1932  1.4105e-04  7.5229e-08  1.9419e-08  8.1448e-07  1.3917e-07  0:00:19   68
  1933  1.4118e-04  7.4744e-08  1.9356e-08  7.8802e-07  1.4475e-07  0:00:15   67
  1934  1.4271e-04  7.5113e-08  1.9404e-08  7.9064e-07  1.3934e-07  0:00:12   66
  1935  1.4264e-04  7.5432e-08  1.9680e-08  8.0528e-07  1.4242e-07  0:00:09   65
  1936  1.4166e-04  7.5236e-08  1.9810e-08  8.0966e-07  1.4256e-07  0:00:07   64

  iter  continuity  x-velocity  y-velocity           k       omega     time/iter
  1937  1.4249e-04  7.4931e-08  1.9725e-08  7.8849e-07  1.4026e-07  0:00:06   63
  1938  1.4403e-04  7.5705e-08  1.9834e-08  7.8505e-07  1.3754e-07  0:00:17   62
  1939  1.4306e-04  7.5492e-08  1.9728e-08  7.7649e-07  1.4367e-07  0:00:13   61
  1940  1.4232e-04  7.5498e-08  1.9774e-08  7.5802e-07  1.3696e-07  0:00:10   60
  1941  1.4256e-04  7.5276e-08  1.9665e-08  7.3513e-07  1.3892e-07  0:00:08   59
  1942  1.4526e-04  7.5076e-08  1.9631e-08  7.2979e-07  1.4057e-07  0:00:06   58
  1943  1.4270e-04  7.5310e-08  1.9954e-08  7.4640e-07  1.4019e-07  0:00:05   57
  1944  1.4393e-04  7.5325e-08  1.9423e-08  7.6135e-07  1.4091e-07  0:00:15   56
  1945  1.4437e-04  7.4571e-08  1.9738e-08  7.7378e-07  1.4211e-07  0:00:12   55
  1946  1.4279e-04  7.5161e-08  1.9661e-08  7.8107e-07  1.4004e-07  0:00:09   54
  1947  1.4509e-04  7.5048e-08  1.9855e-08  7.9761e-07  1.4426e-07  0:00:07   53

  iter  continuity  x-velocity  y-velocity           k       omega     time/iter
  1948  1.4445e-04  7.5385e-08  1.9965e-08  8.0185e-07  1.4216e-07  0:00:06   52
  1949  1.4491e-04  7.6834e-08  1.9884e-08  8.0821e-07  1.4029e-07  0:00:05   51
  1950  1.4680e-04  7.6012e-08  2.0256e-08  8.5029e-07  1.3829e-07  0:00:14   50
  1951  1.4354e-04  7.5942e-08  2.0372e-08  8.3732e-07  1.4591e-07  0:00:11   49
  1952  1.4404e-04  7.5417e-08  2.0094e-08  7.8970e-07  1.4091e-07  0:00:08   48
  1953  1.4273e-04  7.4392e-08  2.0172e-08  7.7092e-07  1.4491e-07  0:00:07   47
  1954  1.4448e-04  7.4207e-08  2.0096e-08  7.7008e-07  1.4064e-07  0:00:05   46
  1955  1.4399e-04  7.3911e-08  1.9927e-08  7.5879e-07  1.4019e-07  0:00:04   45
  1956  1.4222e-04  7.5180e-08  1.9974e-08  7.2198e-07  1.3978e-07  0:00:03   44
  1957  1.4339e-04  7.3356e-08  2.0157e-08  7.0246e-07  1.4376e-07  0:00:11   43
  1958  1.4430e-04  7.3863e-08  1.9754e-08  6.7962e-07  1.3656e-07  0:00:09   42

  iter  continuity  x-velocity  y-velocity           k       omega     time/iter
  1959  1.4143e-04  7.3869e-08  1.9763e-08  6.5269e-07  1.4300e-07  0:00:07   41
  1960  1.3869e-04  7.3209e-08  1.9081e-08  6.3535e-07  1.3927e-07  0:00:05   40
  1961  1.4082e-04  7.2752e-08  1.9062e-08  6.3020e-07  1.3729e-07  0:00:04   39
  1962  1.4110e-04  7.2013e-08  1.9108e-08  6.5119e-07  1.4181e-07  0:00:03   38
  1963  1.3979e-04  7.1789e-08  1.9406e-08  6.8273e-07  1.3863e-07  0:00:10   37
  1964  1.3912e-04  7.2430e-08  1.9315e-08  7.0713e-07  1.3701e-07  0:00:08   36
  1965  1.4359e-04  7.2076e-08  1.9382e-08  7.2566e-07  1.4132e-07  0:00:06   35
  1966  1.4165e-04  7.2239e-08  1.9622e-08  7.4936e-07  1.3477e-07  0:00:05   34
  1967  1.4282e-04  7.2123e-08  1.9299e-08  7.8166e-07  1.3954e-07  0:00:04   33
  1968  1.4113e-04  7.2070e-08  1.9264e-08  8.0168e-07  1.3664e-07  0:00:09   32
  1969  1.4069e-04  7.2033e-08  1.9109e-08  8.1737e-07  1.3742e-07  0:00:07   31

  iter  continuity  x-velocity  y-velocity           k       omega     time/iter
  1970  1.4079e-04  7.1767e-08  1.9124e-08  8.2761e-07  1.3860e-07  0:00:06   30
  1971  1.4137e-04  7.1065e-08  1.9130e-08  8.0009e-07  1.4095e-07  0:00:04   29
  1972  1.4014e-04  7.1995e-08  1.9027e-08  7.4820e-07  1.3415e-07  0:00:03   28
  1973  1.3808e-04  7.1685e-08  1.9113e-08  7.4462e-07  1.3920e-07  0:00:03   27
  1974  1.4211e-04  7.1796e-08  1.8991e-08  7.6165e-07  1.3893e-07  0:00:07   26
  1975  1.4223e-04  7.2343e-08  1.9100e-08  7.5366e-07  1.3412e-07  0:00:06   25
  1976  1.4188e-04  7.2026e-08  1.8966e-08  7.4477e-07  1.3800e-07  0:00:04   24
  1977  1.4163e-04  7.1290e-08  1.9254e-08  7.3299e-07  1.3890e-07  0:00:03   23
  1978  1.3947e-04  7.1513e-08  1.8995e-08  7.0918e-07  1.3121e-07  0:00:02   22
  1979  1.4253e-04  7.2279e-08  1.8855e-08  6.8957e-07  1.3544e-07  0:00:02   21
  1980  1.4012e-04  7.1544e-08  1.9232e-08  6.6018e-07  1.3766e-07  0:00:05   20

  iter  continuity  x-velocity  y-velocity           k       omega     time/iter
  1981  1.3832e-04  7.1015e-08  1.9012e-08  6.3581e-07  1.3360e-07  0:00:04   19
  1982  1.4322e-04  7.1105e-08  1.8874e-08  6.2459e-07  1.3415e-07  0:00:03   18
  1983  1.4046e-04  7.1617e-08  1.9202e-08  6.1663e-07  1.3853e-07  0:00:02   17
  1984  1.4022e-04  7.2436e-08  1.9220e-08  6.2705e-07  1.3429e-07  0:00:02   16
  1985  1.4093e-04  7.1511e-08  1.9124e-08  6.3364e-07  1.3475e-07  0:00:01   15
  1986  1.4077e-04  7.0864e-08  1.9134e-08  6.4616e-07  1.3536e-07  0:00:04   14
  1987  1.4120e-04  7.1041e-08  1.9094e-08  6.5478e-07  1.3677e-07  0:00:03   13
  1988  1.4081e-04  7.1020e-08  1.9127e-08  6.7782e-07  1.3324e-07  0:00:02   12
  1989  1.4226e-04  7.1099e-08  1.9117e-08  6.9901e-07  1.3734e-07  0:00:02   11
  1990  1.4047e-04  7.1084e-08  1.9248e-08  7.4985e-07  1.3126e-07  0:00:01   10
  1991  1.4162e-04  7.1090e-08  1.9134e-08  7.7622e-07  1.3586e-07  0:00:01    9

  iter  continuity  x-velocity  y-velocity           k       omega     time/iter
  1992  1.4518e-04  7.0524e-08  1.9465e-08  7.7521e-07  1.3603e-07  0:00:01    8
  1993  1.4435e-04  7.2318e-08  1.9602e-08  7.5419e-07  1.3767e-07  0:00:02    7
  1994  1.4378e-04  7.2007e-08  1.9805e-08  7.6074e-07  1.3630e-07  0:00:01    6
  1995  1.4626e-04  7.2723e-08  1.9886e-08  7.7002e-07  1.3475e-07  0:00:01    5
  1996  1.4701e-04  7.1592e-08  1.9844e-08  7.3346e-07  1.3122e-07  0:00:01    4
  1997  1.4480e-04  7.1929e-08  1.9988e-08  7.0693e-07  1.4001e-07  0:00:00    3
  1998  1.4649e-04  7.1959e-08  1.9751e-08  6.8849e-07  1.3462e-07  0:00:00    2
  1999  1.4128e-04  7.1601e-08  1.9589e-08  6.6424e-07  1.3272e-07  0:00:00    1
  2000  1.4420e-04  7.1378e-08  1.9494e-08  6.4690e-07  1.3687e-07  0:00:00    0

> 
adjoint/                parallel/               server/
define/                 parametric-study/       solve/
display/                plot/                   surface/
exit                    preferences/            views/
file/                   print-license-usage
mesh/                   report/

> ;create rakes
surface/rake-surface cv_inlet -0.005 -0.065 -0.005 0.065 1000

> surface/rake-surface cv_outlet 1.005 -0.065 1.005 0.065 1000

> surface/rake-surface cv_top -0.005 0.065 1.005 0.065 1000

> surface/rake-surface cv_bottom -0.005 -0.065 1.005 -0.065 1000

> surface/point-surface free-stream -15 0

> 
adjoint/                parallel/               server/
define/                 parametric-study/       solve/
display/                plot/                   surface/
exit                    preferences/            views/
file/                   print-license-usage
mesh/                   report/

> ;export data
file/export/ascii NP_CVinlet_data cv_inlet () no pressure x-velocity y-velocity dx-velocity-dx dx-velocity-dy dy-velocity-dx dy-velocity-dy q no 
Writing "NP_CVinlet_data"...

Writing information to ascii file ...
Done.

ok


Overwrite confirmations (/file/set-batch-options ...)
are on -- will therefore ignore the following journal
Error: invalid command: ok


> file/export/ascii NP_CVoutlet_data cv_outlet () no pressure x-velocity y-velocity dx-velocity-dx dx-velocity-dy dy-velocity-dx dy-velocity-dy q no 
Writing "NP_CVoutlet_data"...

Writing information to ascii file ...
Done.

ok


Overwrite confirmations (/file/set-batch-options ...)
are on -- will therefore ignore the following journal
Error: invalid command: ok


> file/export/ascii NP_CVtop_data cv_top () no pressure x-velocity y-velocity dx-velocity-dx dx-velocity-dy dy-velocity-dx dy-velocity-dy q no 
Writing "NP_CVtop_data"...

Writing information to ascii file ...
Done.

ok


Overwrite confirmations (/file/set-batch-options ...)
are on -- will therefore ignore the following journal
Error: invalid command: ok


> file/export/ascii NP_CVbottom_data cv_bottom () no pressure x-velocity y-velocity dx-velocity-dx dx-velocity-dy dy-velocity-dx dy-velocity-dy q no 
Writing "NP_CVbottom_data"...

Writing information to ascii file ...
Done.

ok


Overwrite confirmations (/file/set-batch-options ...)
are on -- will therefore ignore the following journal
Error: invalid command: ok


> file/export/ascii air_properties free-stream () no density viscosity-lam q no 
Writing "air_properties"...

Writing information to ascii file ...
Done.

ok


Overwrite confirmations (/file/set-batch-options ...)
are on -- will therefore ignore the following journal
Error: invalid command: ok


> 
adjoint/                parallel/               server/
define/                 parametric-study/       solve/
display/                plot/                   surface/
exit                    preferences/            views/
file/                   print-license-usage
mesh/                   report/

> ;flag file to know when simulation is over
file/export/ascii flag_file free-stream () no pressure q no 
Writing "flag_file"...

Writing information to ascii file ...
Done.

ok


Overwrite confirmations (/file/set-batch-options ...)
are on -- will therefore ignore the following journal
Error: invalid command: ok


> /exit ok

Posting ANSYS Product Improvement Program performance data 
Done.
Auto-Transcript Stop Time:  21:43:54, 20 Jul 2025 GMT Summer Time 
Total Transcript Time: 23 Minute 55 Second.
