Auto-Transcript Start Time:  19:28:58, 01 Jul 2025 GMT Summer Time 
Current Directory: "C:\Users\V.Chepuri\OneDrive - Cranfield University\irp\pablo\AOA_1"

              Welcome to ANSYS Fluent 2024 R2

              Copyright 1987-2024 ANSYS, Inc. All Rights Reserved.
              Unauthorized use, distribution or duplication is prohibited.
              This product is subject to U.S. laws governing export and re-export.
              For full Legal Notice, see documentation.

Build Time: May 13 2024 11:28:30 EST  Build Id: 10192  
 
Connected License Server List:	1055@cclic-2.central.cranfield.ac.uk

*********************************************
Info: Your license enables 4-way parallel execution.
For faster simulations, please start the application with the appropriate parallel options.
*********************************************


     --------------------------------------------------------------
     This is an academic version of ANSYS FLUENT. Usage of this product
     license is limited to the terms and conditions specified in your ANSYS
     license form, additional terms section.
     --------------------------------------------------------------
Host spawning Node 0 on machine "37PCL051" (win64).

-------------------------------------------------------------------------------
ID    Hostname  Core  O.S.         PID   Vendor                          
-------------------------------------------------------------------------------
n0    37PCL051  1/28  Windows-x64  8708  Intel(R) Core(TM) i7-14700      
host  37PCL051        Windows-x64  4452  Intel(R) Core(TM) i7-14700      

MPI Option Selected: intel
-------------------------------------------------------------------------------

Cleanup script file is C:\\Users\\V.Chepuri\\OneDrive - Cranfield University\\irp\\pablo\\AOA_1\\cleanup-fluent-37PCL051-4452.bat

Posting ANSYS Product Improvement Program startup data
Done.

> (cx-gui-do cx-activate-item "Key Behavioral Changes*PanelButtons*PushButton1(OK)")
(cx-gui-do cx-activate-item "MenuBar*ReadSubMenu*Journal...")

Reading journal file C:/Users/V.Chepuri/OneDrive - Cranfield University/irp/pablo/AOA_1/template.jou...

> ;change to correct dir

file/read-case template_medium.cas.h5 Fast-loading "C:\PROGRA~1\ANSYSI~1\v242\fluent\fluent24.2.0\\addons\afd\lib\hdfio.bin"
Done.

37PCL051 has other FLUENT parallel processes running.                       Process affinity not being set.

Reading from 37PCL051:"C:\Users\V.Chepuri\OneDrive - Cranfield University\irp\pablo\AOA_1\template_medium.cas.h5" in NODE0 mode ...
  Reading mesh ...
      181070 cells,     4 cell zones ...
          36824 mixed cells,  zone id: 2
         108032 mixed cells,  zone id: 4
          27008 mixed cells,  zone id: 12
           9206 mixed cells,  zone id: 11
      309160 faces,    14 face zones ...
          65137 2D interior faces,  zone id: 3
         181145 2D interior faces,  zone id: 5
             42 2D velocity-inlet faces,  zone id: 6
             38 2D pressure-outlet faces,  zone id: 7
             40 2D velocity-inlet faces,  zone id: 8
            458 2D interior faces,  zone id: 9
            456 2D interior faces,  zone id: 10
            228 2D parent-face faces,  zone id: 19
            229 2D parent-face faces,  zone id: 18
             20 2D parent-face faces,  zone id: 17
             19 2D parent-face faces,  zone id: 16
             21 2D parent-face faces,  zone id: 15
          45157 2D parent-face faces,  zone id: 14
          16170 2D parent-face faces,  zone id: 13
      102461 nodes,     1 node zone  ...
  Done.


Building...
     mesh
     materials,
     interface,
     domains,
	mixture
     zones,
	outlet
	inlet
	interior-fluid
	interior-porous
	symmetry
	upper
	lower
	fluid
	porous
WARNING: "Smooth" contours can't be displayed when node-values is set to off. Changing the Coloring type to "Banded".
     parallel,
Done.
OK


Overwrite confirmations (/file/set-batch-options ...)
are on -- will therefore ignore the following journal
Error: invalid command: OK


> 
adjoint/                parallel/               server/
define/                 parametric-study/       solve/
display/                plot/                   surface/
exit                    preferences/            views/
file/                   print-license-usage
mesh/                   report/

> 
adjoint/                parallel/               server/
define/                 parametric-study/       solve/
display/                plot/                   surface/
exit                    preferences/            views/
file/                   print-license-usage
mesh/                   report/

> 
adjoint/                parallel/               server/
define/                 parametric-study/       solve/
display/                plot/                   surface/
exit                    preferences/            views/
file/                   print-license-usage
mesh/                   report/

> ;run simulation
solve/initialize/initialize-flow

> solve/iterate 2000

  iter  continuity  x-velocity  y-velocity     time/iter
     1  1.0000e+00  5.4157e-05  1.5020e-02  0:33:19 1999
     2  1.0000e+00  1.3285e-04  1.0899e-02  0:33:18 1998
     3  1.0000e+00  1.3985e-04  7.7447e-03  0:26:38 1997
     4  8.8031e-01  1.2592e-04  5.0354e-03  0:27:57 1996
     5  7.4217e-01  1.0774e-04  3.0186e-03  0:22:21 1995
     6  6.1523e-01  8.9915e-05  1.6914e-03  0:17:52 1994
     7  5.2229e-01  7.7645e-05  9.0955e-04  0:14:17 1993
     8  4.5634e-01  6.8169e-05  4.7726e-04  0:18:04 1992
     9  3.9772e-01  6.0103e-05  2.4689e-04  0:14:27 1991
    10  3.4843e-01  5.3105e-05  1.2693e-04  0:11:33 1990
    11  3.0658e-01  4.6910e-05  6.5394e-05  0:15:52 1989

  iter  continuity  x-velocity  y-velocity     time/iter
    12  2.7103e-01  4.1162e-05  3.4265e-05  0:12:41 1988
    13  2.3931e-01  3.5992e-05  1.8610e-05  0:10:09 1987
    14  2.1159e-01  3.1343e-05  1.0718e-05  0:08:07 1986
    15  1.8788e-01  2.7077e-05  6.7016e-06  0:13:06 1985
    16  1.6623e-01  2.3500e-05  4.6393e-06  0:10:29 1984
    17  1.4488e-01  1.9787e-05  3.5009e-06  0:08:23 1983
    18  1.2757e-01  1.6908e-05  2.8675e-06  0:06:42 1982
    19  1.1151e-01  1.4449e-05  2.4755e-06  0:11:58 1981
    20  9.7805e-02  1.2395e-05  2.1981e-06  0:09:34 1980
    21  8.7580e-02  1.0960e-05  1.9876e-06  0:07:39 1979
    22  7.6981e-02  9.3101e-06  1.7772e-06  0:06:07 1978

  iter  continuity  x-velocity  y-velocity     time/iter
    23  6.8513e-02  8.0569e-06  1.5937e-06  0:11:29 1977
    24  6.1186e-02  7.0133e-06  1.4472e-06  0:09:11 1976
    25  5.4691e-02  6.1235e-06  1.3181e-06  0:07:20 1975
    26  4.9225e-02  5.3648e-06  1.2161e-06  0:12:27 1974
    27  4.4662e-02  4.7064e-06  1.1233e-06  0:09:57 1973
    28  4.0655e-02  4.1353e-06  1.0395e-06  0:07:58 1972
    29  3.7067e-02  3.6263e-06  9.6968e-07  0:06:22 1971
    30  3.3649e-02  3.1812e-06  9.1087e-07  0:11:39 1970
    31  3.0529e-02  2.7843e-06  8.5946e-07  0:09:19 1969
    32  2.7792e-02  2.4451e-06  8.0625e-07  0:07:27 1968
    33  2.5221e-02  2.1466e-06  7.6032e-07  0:05:57 1967

  iter  continuity  x-velocity  y-velocity     time/iter
    34  2.3007e-02  1.8950e-06  7.2198e-07  0:11:19 1966
    35  2.0954e-02  1.6648e-06  6.8916e-07  0:09:03 1965
    36  1.9190e-02  1.4542e-06  6.5738e-07  0:07:14 1964
    37  1.7711e-02  1.2671e-06  6.2701e-07  0:05:47 1963
    38  1.6439e-02  1.1191e-06  5.9957e-07  0:04:38 1962
    39  1.5203e-02  9.9110e-07  5.7292e-07  0:10:14 1961
    40  1.4053e-02  8.8194e-07  5.4879e-07  0:08:11 1960
    41  1.3035e-02  7.8371e-07  5.2671e-07  0:06:33 1959
    42  1.2076e-02  7.0000e-07  5.0712e-07  0:05:14 1958
    43  1.1198e-02  6.2670e-07  4.8961e-07  0:10:42 1957
    44  1.0439e-02  5.6566e-07  4.7287e-07  0:08:34 1956

  iter  continuity  x-velocity  y-velocity     time/iter
    45  9.7865e-03  5.1509e-07  4.5713e-07  0:06:51 1955
    46  9.2167e-03  4.7090e-07  4.4269e-07  0:05:28 1954
    47  8.7202e-03  4.3056e-07  4.3003e-07  0:10:53 1953
    48  8.2783e-03  3.9549e-07  4.1867e-07  0:08:42 1952
    49  7.8933e-03  3.6432e-07  4.0819e-07  0:06:58 1951
    50  7.5244e-03  3.3702e-07  3.9814e-07  0:05:34 1950
    51  7.1927e-03  3.1259e-07  3.8874e-07  0:10:57 1949
    52  6.9008e-03  2.9048e-07  3.8016e-07  0:08:45 1948
    53  6.6292e-03  2.7024e-07  3.7202e-07  0:07:00 1947
    54  6.3797e-03  2.5384e-07  3.6435e-07  0:05:36 1946
    55  6.1374e-03  2.3961e-07  3.5708e-07  0:04:28 1945

  iter  continuity  x-velocity  y-velocity     time/iter
    56  5.9167e-03  2.2775e-07  3.5031e-07  0:10:03 1944
    57  5.7178e-03  2.1710e-07  3.4387e-07  0:08:03 1943
    58  5.5347e-03  2.0764e-07  3.3774e-07  0:06:26 1942
    59  5.3769e-03  2.0064e-07  3.2985e-07  0:11:37 1941
    60  5.2148e-03  1.9046e-07  3.2571e-07  0:09:17 1940
    61  5.0735e-03  1.8380e-07  3.1908e-07  0:07:25 1939
    62  4.9292e-03  1.7524e-07  3.1555e-07  0:05:56 1938
    63  4.8059e-03  1.6991e-07  3.0937e-07  0:11:12 1937
    64  4.6782e-03  1.6289e-07  3.0599e-07  0:08:57 1936
    65  4.5720e-03  1.5859e-07  2.9992e-07  0:07:10 1935
    66  4.4727e-03  1.5381e-07  2.9502e-07  0:05:44 1934

  iter  continuity  x-velocity  y-velocity     time/iter
    67  4.3750e-03  1.4925e-07  2.9062e-07  0:11:01 1933
    68  4.2815e-03  1.4527e-07  2.8647e-07  0:08:49 1932
    69  4.1916e-03  1.4171e-07  2.8246e-07  0:07:03 1931
    70  4.1063e-03  1.3849e-07  2.7851e-07  0:12:04 1930
    71  4.0260e-03  1.3548e-07  2.7455e-07  0:09:39 1929
    72  3.9492e-03  1.3272e-07  2.7067e-07  0:07:43 1928
    73  3.8748e-03  1.3015e-07  2.6685e-07  0:12:36 1927
    74  3.8044e-03  1.2771e-07  2.6308e-07  0:10:04 1926
    75  3.7370e-03  1.2537e-07  2.5941e-07  0:08:03 1925
    76  3.6728e-03  1.2314e-07  2.5585e-07  0:12:51 1924
    77  3.6114e-03  1.2096e-07  2.5241e-07  0:10:17 1923

  iter  continuity  x-velocity  y-velocity     time/iter
    78  3.5528e-03  1.1892e-07  2.4908e-07  0:08:13 1922
    79  3.4962e-03  1.1696e-07  2.4586e-07  0:06:34 1921
    80  3.4423e-03  1.1512e-07  2.4277e-07  0:11:39 1920
    81  3.3912e-03  1.1336e-07  2.3978e-07  0:09:19 1919
    82  3.3425e-03  1.1171e-07  2.3687e-07  0:07:27 1918
    83  3.2973e-03  1.1016e-07  2.3402e-07  0:12:21 1917
    84  3.2546e-03  1.0866e-07  2.3123e-07  0:09:52 1916
    85  3.2138e-03  1.0715e-07  2.2853e-07  0:07:54 1915
    86  3.1742e-03  1.0568e-07  2.2592e-07  0:12:42 1914
    87  3.1356e-03  1.0424e-07  2.2339e-07  0:10:09 1913
    88  3.0978e-03  1.0287e-07  2.2090e-07  0:08:07 1912

  iter  continuity  x-velocity  y-velocity     time/iter
    89  3.0606e-03  1.0164e-07  2.1844e-07  0:06:29 1911
    90  3.0240e-03  1.0050e-07  2.1605e-07  0:11:33 1910
    91  2.9883e-03  9.9374e-08  2.1372e-07  0:09:14 1909
    92  2.9533e-03  9.8204e-08  2.1145e-07  0:07:23 1908
    93  2.9189e-03  9.6642e-08  2.0922e-07  0:12:16 1907
    94  2.8858e-03  9.5127e-08  2.0703e-07  0:09:48 1906
    95  2.8527e-03  9.3697e-08  2.0486e-07  0:07:50 1905
    96  2.8205e-03  9.2373e-08  2.0272e-07  0:06:16 1904
    97  2.7888e-03  9.1150e-08  2.0061e-07  0:11:21 1903
    98  2.7580e-03  9.0029e-08  1.9853e-07  0:09:05 1902
    99  2.7282e-03  8.8966e-08  1.9652e-07  0:07:16 1901

  iter  continuity  x-velocity  y-velocity     time/iter
   100  2.6992e-03  8.7961e-08  1.9460e-07  0:12:08 1900
   101  2.6712e-03  8.7002e-08  1.9274e-07  0:09:42 1899
   102  2.6438e-03  8.6098e-08  1.9093e-07  0:07:46 1898
   103  2.6171e-03  8.5218e-08  1.8914e-07  0:06:12 1897
   104  2.5914e-03  8.4367e-08  1.8738e-07  0:11:17 1896
   105  2.5666e-03  8.3557e-08  1.8565e-07  0:09:01 1895
   106  2.5424e-03  8.2781e-08  1.8393e-07  0:07:13 1894
   107  2.5190e-03  8.2034e-08  1.8225e-07  0:12:05 1893
   108  2.4965e-03  8.1320e-08  1.8063e-07  0:09:39 1892
   109  2.4748e-03  8.0617e-08  1.7907e-07  0:07:43 1891
   110  2.4535e-03  7.9917e-08  1.7756e-07  0:06:10 1890

  iter  continuity  x-velocity  y-velocity     time/iter
   111  2.4325e-03  7.9220e-08  1.7610e-07  0:11:14 1889
   112  2.4121e-03  7.8533e-08  1.7467e-07  0:08:59 1888
   113  2.3922e-03  7.7861e-08  1.7326e-07  0:07:11 1887
   114  2.3730e-03  7.7205e-08  1.7188e-07  0:12:02 1886
   115  2.3543e-03  7.6565e-08  1.7052e-07  0:09:37 1885
   116  2.3360e-03  7.5941e-08  1.6919e-07  0:07:41 1884
   117  2.3183e-03  7.5323e-08  1.6791e-07  0:12:26 1883
   118  2.3006e-03  7.4705e-08  1.6665e-07  0:09:56 1882
   119  2.2832e-03  7.4096e-08  1.6544e-07  0:07:57 1881
   120  2.2663e-03  7.3525e-08  1.6423e-07  0:06:21 1880
   121  2.2494e-03  7.2958e-08  1.6302e-07  0:11:21 1879

  iter  continuity  x-velocity  y-velocity     time/iter
   122  2.2326e-03  7.2392e-08  1.6180e-07  0:09:04 1878
   123  2.2159e-03  7.1832e-08  1.6060e-07  0:13:30 1877
   124  2.1992e-03  7.1284e-08  1.5942e-07  0:10:48 1876
   125  2.1776e-03  6.9965e-08  1.5890e-07  0:08:38 1875
   126  2.1647e-03  7.0167e-08  1.5716e-07  0:06:54 1874
   127  2.1506e-03  6.9971e-08  1.5577e-07  0:11:46 1873
   128  2.1352e-03  6.9523e-08  1.5450e-07  0:09:24 1872
   129  2.1193e-03  6.9011e-08  1.5328e-07  0:07:31 1871
   130  2.1035e-03  6.8464e-08  1.5211e-07  0:12:15 1870
   131  2.0879e-03  6.7892e-08  1.5098e-07  0:09:48 1869
   132  2.0676e-03  6.6567e-08  1.5046e-07  0:07:50 1868

  iter  continuity  x-velocity  y-velocity     time/iter
   133  2.0555e-03  6.6610e-08  1.4882e-07  0:12:29 1867
   134  2.0429e-03  6.6378e-08  1.4751e-07  0:09:59 1866
   135  2.0294e-03  6.5928e-08  1.4635e-07  0:07:59 1865
   136  2.0156e-03  6.5421e-08  1.4525e-07  0:06:23 1864
   137  2.0016e-03  6.4897e-08  1.4417e-07  0:11:19 1863
   138  1.9825e-03  6.3628e-08  1.4369e-07  0:09:03 1862
   139  1.9714e-03  6.3679e-08  1.4215e-07  0:07:14 1861
   140  1.9596e-03  6.3466e-08  1.4094e-07  0:11:59 1860
   141  1.9471e-03  6.3042e-08  1.3986e-07  0:09:35 1859
   142  1.9344e-03  6.2568e-08  1.3884e-07  0:07:40 1858
   143  1.9166e-03  6.1362e-08  1.3841e-07  0:06:08 1857

  iter  continuity  x-velocity  y-velocity     time/iter
   144  1.9066e-03  6.1446e-08  1.3696e-07  0:11:05 1856
   145  1.8960e-03  6.1258e-08  1.3583e-07  0:08:52 1855
   146  1.8846e-03  6.0871e-08  1.3484e-07  0:13:16 1854
   147  1.8678e-03  5.9712e-08  1.3443e-07  0:10:36 1853
   148  1.8590e-03  5.9857e-08  1.3306e-07  0:14:39 1852
   149  1.8492e-03  5.9685e-08  1.3199e-07  0:11:43 1851
   150  1.8383e-03  5.9328e-08  1.3106e-07  0:15:32 1850
   151  1.8221e-03  5.8205e-08  1.3068e-07  0:12:25 1849
   152  1.8136e-03  5.8329e-08  1.2938e-07  0:16:06 1848
   153  1.8042e-03  5.8169e-08  1.2837e-07  0:12:52 1847
   154  1.7942e-03  5.7828e-08  1.2748e-07  0:16:26 1846

  iter  continuity  x-velocity  y-velocity     time/iter
   155  1.7788e-03  5.6737e-08  1.2713e-07  0:13:09 1845
   156  1.7707e-03  5.6854e-08  1.2589e-07  0:16:39 1844
   157  1.7621e-03  5.6698e-08  1.2493e-07  0:13:19 1843
   158  1.7476e-03  5.5651e-08  1.2459e-07  0:16:47 1842
   159  1.7411e-03  5.5880e-08  1.2339e-07  0:13:25 1841
   160  1.7333e-03  5.5751e-08  1.2248e-07  0:16:52 1840
   161  1.7195e-03  5.4720e-08  1.2218e-07  0:13:29 1839
   162  1.7135e-03  5.4952e-08  1.2104e-07  0:16:55 1838
   163  1.7063e-03  5.4823e-08  1.2018e-07  0:19:39 1837
   164  1.6930e-03  5.3820e-08  1.1991e-07  0:15:42 1836
   165  1.6872e-03  5.4015e-08  1.1882e-07  0:18:40 1835

  iter  continuity  x-velocity  y-velocity     time/iter
   166  1.6803e-03  5.3892e-08  1.1800e-07  0:14:56 1834
   167  1.6672e-03  5.2915e-08  1.1774e-07  0:18:03 1833
   168  1.6613e-03  5.3097e-08  1.1669e-07  0:14:26 1832
   169  1.6543e-03  5.2970e-08  1.1589e-07  0:17:39 1831
   170  1.6415e-03  5.2011e-08  1.1565e-07  0:14:06 1830
   171  1.6362e-03  5.2192e-08  1.1462e-07  0:17:23 1829
   172  1.6299e-03  5.2071e-08  1.1385e-07  0:13:54 1828
   173  1.6176e-03  5.1135e-08  1.1364e-07  0:17:12 1827
   174  1.6126e-03  5.1324e-08  1.1265e-07  0:19:50 1826
   175  1.6066e-03  5.1239e-08  1.1191e-07  0:15:52 1825
   176  1.5943e-03  5.0317e-08  1.1171e-07  0:18:46 1824

  iter  continuity  x-velocity  y-velocity     time/iter
   177  1.5896e-03  5.0533e-08  1.1074e-07  0:21:05 1823
   178  1.5784e-03  4.9744e-08  1.1045e-07  0:16:51 1822
   179  1.5748e-03  5.0097e-08  1.0947e-07  0:19:33 1821
   180  1.5693e-03  4.9991e-08  1.0874e-07  0:15:38 1820
   181  1.5574e-03  4.9080e-08  1.0855e-07  0:18:34 1819
   182  1.5532e-03  4.9265e-08  1.0764e-07  0:14:50 1818
   183  1.5425e-03  4.8509e-08  1.0738e-07  0:17:55 1817
   184  1.5392e-03  4.8820e-08  1.0645e-07  0:14:20 1816
   185  1.5286e-03  4.8035e-08  1.0618e-07  0:17:30 1815
   186  1.5261e-03  4.8384e-08  1.0525e-07  0:20:03 1814
   187  1.5160e-03  4.7593e-08  1.0498e-07  0:16:02 1813

  iter  continuity  x-velocity  y-velocity     time/iter
   188  1.5141e-03  4.7936e-08  1.0411e-07  0:18:51 1812
   189  1.5042e-03  4.7159e-08  1.0388e-07  0:15:05 1811
   190  1.5022e-03  4.7486e-08  1.0303e-07  0:18:05 1810
   191  1.4924e-03  4.6730e-08  1.0280e-07  0:14:28 1809
   192  1.4905e-03  4.7037e-08  1.0194e-07  0:17:35 1808
   193  1.4807e-03  4.6291e-08  1.0174e-07  0:14:04 1807
   194  1.4787e-03  4.6584e-08  1.0092e-07  0:17:16 1806
   195  1.4690e-03  4.5848e-08  1.0072e-07  0:19:49 1805
   196  1.4671e-03  4.6131e-08  9.9902e-08  0:15:51 1804
   197  1.4574e-03  4.5399e-08  9.9707e-08  0:18:41 1803
   198  1.4555e-03  4.5673e-08  9.8908e-08  0:14:56 1802

  iter  continuity  x-velocity  y-velocity     time/iter
   199  1.4457e-03  4.4945e-08  9.8726e-08  0:17:57 1801
   200  1.4437e-03  4.5213e-08  9.7936e-08  0:14:21 1800
   201  1.4339e-03  4.4490e-08  9.7756e-08  0:17:28 1799
   202  1.4322e-03  4.4757e-08  9.6979e-08  0:13:58 1798
   203  1.4227e-03  4.4043e-08  9.6802e-08  0:17:09 1797
   204  1.4212e-03  4.4312e-08  9.6037e-08  0:13:43 1796
   205  1.4119e-03  4.3609e-08  9.5867e-08  0:16:57 1795
   206  1.4105e-03  4.3880e-08  9.5106e-08  0:19:32 1794
   207  1.4010e-03  4.3188e-08  9.4927e-08  0:15:37 1793
   208  1.3995e-03  4.3460e-08  9.4168e-08  0:18:28 1792
   209  1.3901e-03  4.2776e-08  9.3990e-08  0:14:46 1791

  iter  continuity  x-velocity  y-velocity     time/iter
   210  1.3886e-03  4.3047e-08  9.3242e-08  0:17:46 1790
   211  1.3795e-03  4.2375e-08  9.3069e-08  0:14:12 1789
   212  1.3781e-03  4.2646e-08  9.2336e-08  0:17:19 1788
   213  1.3693e-03  4.1984e-08  9.2175e-08  0:19:48 1787
   214  1.3680e-03  4.2253e-08  9.1463e-08  0:15:50 1786
   215  1.3593e-03  4.1640e-08  9.1302e-08  0:18:37 1785
   216  1.3582e-03  4.1974e-08  9.0596e-08  0:14:53 1784
   217  1.3491e-03  4.1293e-08  9.0452e-08  0:17:50 1783
   218  1.3477e-03  4.1569e-08  8.9760e-08  0:14:16 1782
   219  1.3390e-03  4.0932e-08  8.9623e-08  0:17:21 1781
   220  1.3375e-03  4.1177e-08  8.8946e-08  0:13:52 1780

  iter  continuity  x-velocity  y-velocity     time/iter
   221  1.3289e-03  4.0565e-08  8.8816e-08  0:17:01 1779
   222  1.3226e-03  4.0283e-08  8.8513e-08  0:19:32 1778
   223  1.3228e-03  4.0748e-08  8.7748e-08  0:15:37 1777
   224  1.3141e-03  4.0088e-08  8.7577e-08  0:18:24 1776
   225  1.3132e-03  4.0404e-08  8.6891e-08  0:14:43 1775
   226  1.3046e-03  3.9783e-08  8.6746e-08  0:17:41 1774
   227  1.2983e-03  3.9488e-08  8.6428e-08  0:20:03 1773
   228  1.2983e-03  3.9933e-08  8.5660e-08  0:16:02 1772
   229  1.2897e-03  3.9293e-08  8.5477e-08  0:18:43 1771
   230  1.2836e-03  3.9026e-08  8.5153e-08  0:14:58 1770
   231  1.2838e-03  3.9486e-08  8.4394e-08  0:17:52 1769

  iter  continuity  x-velocity  y-velocity     time/iter
   232  1.2753e-03  3.8847e-08  8.4218e-08  0:14:17 1768
   233  1.2692e-03  3.8562e-08  8.3907e-08  0:17:19 1767
   234  1.2694e-03  3.8999e-08  8.3169e-08  0:13:50 1766
   235  1.2611e-03  3.8377e-08  8.3007e-08  0:16:57 1765
   236  1.2550e-03  3.8096e-08  8.2710e-08  0:13:33 1764
   237  1.2551e-03  3.8507e-08  8.1985e-08  0:16:43 1763
   238  1.2470e-03  3.7899e-08  8.1829e-08  0:13:22 1762
   239  1.2410e-03  3.7606e-08  8.1529e-08  0:16:33 1761
   240  1.2411e-03  3.7993e-08  8.0816e-08  0:19:06 1760
   241  1.2330e-03  3.7396e-08  8.0673e-08  0:15:16 1759
   242  1.2272e-03  3.7108e-08  8.0392e-08  0:18:04 1758

  iter  continuity  x-velocity  y-velocity     time/iter
   243  1.2272e-03  3.7485e-08  7.9695e-08  0:14:27 1757
   244  1.2193e-03  3.6894e-08  7.9552e-08  0:17:24 1756
   245  1.2135e-03  3.6613e-08  7.9275e-08  0:13:55 1755
   246  1.2136e-03  3.6987e-08  7.8593e-08  0:16:58 1754
   247  1.2058e-03  3.6404e-08  7.8458e-08  0:13:34 1753
   248  1.2002e-03  3.6129e-08  7.8190e-08  0:16:41 1752
   249  1.2004e-03  3.6502e-08  7.7519e-08  0:13:21 1751
   250  1.1927e-03  3.5929e-08  7.7388e-08  0:16:30 1750
   251  1.1872e-03  3.5660e-08  7.7126e-08  0:13:12 1749
   252  1.1829e-03  3.5530e-08  7.6798e-08  0:16:23 1748
   253  1.1839e-03  3.5988e-08  7.6112e-08  0:13:06 1747

  iter  continuity  x-velocity  y-velocity     time/iter
   254  1.1763e-03  3.5392e-08  7.5978e-08  0:16:17 1746
   255  1.1709e-03  3.5124e-08  7.5722e-08  0:13:01 1745
   256  1.1665e-03  3.4990e-08  7.5405e-08  0:16:14 1744
   257  1.1676e-03  3.5443e-08  7.4737e-08  0:12:58 1743
   258  1.1602e-03  3.4877e-08  7.4615e-08  0:16:11 1742
   259  1.1549e-03  3.4604e-08  7.4372e-08  0:12:56 1741
   260  1.1505e-03  3.4457e-08  7.4066e-08  0:16:09 1740
   261  1.1514e-03  3.4884e-08  7.3414e-08  0:18:42 1739
   262  1.1442e-03  3.4335e-08  7.3300e-08  0:14:57 1738
   263  1.1389e-03  3.4063e-08  7.3066e-08  0:17:45 1737
   264  1.1347e-03  3.3915e-08  7.2769e-08  0:14:11 1736

  iter  continuity  x-velocity  y-velocity     time/iter
   265  1.1356e-03  3.4323e-08  7.2131e-08  0:17:08 1735
   266  1.1285e-03  3.3780e-08  7.2018e-08  0:13:42 1734
   267  1.1233e-03  3.3512e-08  7.1789e-08  0:16:44 1733
   268  1.1192e-03  3.3367e-08  7.1500e-08  0:13:22 1732
   269  1.1155e-03  3.3273e-08  7.1187e-08  0:16:28 1731
   270  1.1168e-03  3.3712e-08  7.0561e-08  0:13:10 1730
   271  1.1098e-03  3.3162e-08  7.0459e-08  0:16:17 1729
   272  1.1048e-03  3.2893e-08  7.0244e-08  0:13:01 1728
   273  1.1007e-03  3.2742e-08  6.9971e-08  0:16:10 1727
   274  1.0971e-03  3.2646e-08  6.9671e-08  0:18:41 1726
   275  1.0984e-03  3.3075e-08  6.9063e-08  0:14:56 1725

  iter  continuity  x-velocity  y-velocity     time/iter
   276  1.0917e-03  3.2553e-08  6.8968e-08  0:11:56 1724
   277  1.0869e-03  3.2290e-08  6.8761e-08  0:15:17 1723
   278  1.0830e-03  3.2139e-08  6.8496e-08  0:12:14 1722
   279  1.0796e-03  3.2040e-08  6.8216e-08  0:15:31 1721
   280  1.0767e-03  3.1960e-08  6.7939e-08  0:18:08 1720
   281  1.0784e-03  3.2391e-08  6.7375e-08  0:14:30 1719
   282  1.0722e-03  3.1875e-08  6.7312e-08  0:17:19 1718
   283  1.0678e-03  3.1609e-08  6.7140e-08  0:13:51 1717
   284  1.0641e-03  3.1451e-08  6.6909e-08  0:16:48 1716
   285  1.0609e-03  3.1347e-08  6.6652e-08  0:13:26 1715
   286  1.0578e-03  3.1265e-08  6.6386e-08  0:16:27 1714

  iter  continuity  x-velocity  y-velocity     time/iter
   287  1.0547e-03  3.1187e-08  6.6119e-08  0:13:09 1713
   288  1.0517e-03  3.1111e-08  6.5852e-08  0:16:13 1712
   289  1.0533e-03  3.1546e-08  6.5305e-08  0:12:58 1711
   290  1.0472e-03  3.1058e-08  6.5247e-08  0:16:04 1710
   291  1.0426e-03  3.0792e-08  6.5082e-08  0:12:51 1709
   292  1.0389e-03  3.0625e-08  6.4861e-08  0:15:58 1708
   293  1.0357e-03  3.0508e-08  6.4618e-08  0:12:46 1707
   294  1.0326e-03  3.0414e-08  6.4366e-08  0:15:54 1706
   295  1.0296e-03  3.0328e-08  6.4113e-08  0:12:42 1705
   296  1.0267e-03  3.0245e-08  6.3862e-08  0:15:50 1704
   297  1.0237e-03  3.0163e-08  6.3614e-08  0:12:40 1703

  iter  continuity  x-velocity  y-velocity     time/iter
   298  1.0208e-03  3.0079e-08  6.3369e-08  0:15:48 1702
   299  1.0179e-03  2.9994e-08  6.3127e-08  0:12:38 1701
   300  1.0150e-03  2.9909e-08  6.2889e-08  0:15:46 1700
   301  1.0121e-03  2.9821e-08  6.2653e-08  0:12:36 1699
   302  1.0093e-03  2.9732e-08  6.2420e-08  0:15:44 1698
   303  1.0064e-03  2.9641e-08  6.2189e-08  0:12:35 1697
   304  1.0034e-03  2.9548e-08  6.1956e-08  0:15:43 1696
   305  1.0001e-03  2.9451e-08  6.1718e-08  0:12:34 1695
   306  9.9673e-04  2.9350e-08  6.1478e-08  0:15:42 1694
   307  9.9344e-04  2.9246e-08  6.1239e-08  0:12:33 1693
   308  9.9023e-04  2.9140e-08  6.1005e-08  0:15:40 1692

  iter  continuity  x-velocity  y-velocity     time/iter
   309  9.8707e-04  2.9033e-08  6.0773e-08  0:12:32 1691
   310  9.8394e-04  2.8927e-08  6.0543e-08  0:15:39 1690
   311  9.8087e-04  2.8822e-08  6.0312e-08  0:12:31 1689
   312  9.7790e-04  2.8717e-08  6.0084e-08  0:15:38 1688
   313  9.7493e-04  2.8612e-08  5.9860e-08  0:12:30 1687
   314  9.7197e-04  2.8506e-08  5.9635e-08  0:15:37 1686
   315  9.6901e-04  2.8401e-08  5.9411e-08  0:12:29 1685
   316  9.6607e-04  2.8296e-08  5.9187e-08  0:09:59 1684
   317  9.6310e-04  2.8192e-08  5.8964e-08  0:13:35 1683
   318  9.6013e-04  2.8088e-08  5.8742e-08  0:10:52 1682
   319  9.5715e-04  2.7985e-08  5.8522e-08  0:14:17 1681

  iter  continuity  x-velocity  y-velocity     time/iter
   320  9.5418e-04  2.7884e-08  5.8302e-08  0:11:26 1680
   321  9.5119e-04  2.7783e-08  5.8082e-08  0:14:44 1679
   322  9.4820e-04  2.7683e-08  5.7865e-08  0:17:22 1678
   323  9.4521e-04  2.7584e-08  5.7649e-08  0:13:53 1677
   324  9.4224e-04  2.7486e-08  5.7433e-08  0:16:41 1676
   325  9.3927e-04  2.7388e-08  5.7218e-08  0:13:21 1675
   326  9.3631e-04  2.7292e-08  5.7003e-08  0:16:15 1674
   327  9.3338e-04  2.7197e-08  5.6790e-08  0:13:00 1673
   328  9.3047e-04  2.7102e-08  5.6577e-08  0:15:58 1672
   329  9.2755e-04  2.7007e-08  5.6367e-08  0:12:46 1671
   330  9.2464e-04  2.6913e-08  5.6158e-08  0:15:46 1670

  iter  continuity  x-velocity  y-velocity     time/iter
   331  9.2173e-04  2.6820e-08  5.5950e-08  0:12:36 1669
   332  9.1884e-04  2.6726e-08  5.5742e-08  0:15:38 1668
   333  9.1594e-04  2.6633e-08  5.5536e-08  0:12:30 1667
   334  9.1305e-04  2.6541e-08  5.5330e-08  0:15:33 1666
   335  9.1017e-04  2.6449e-08  5.5127e-08  0:12:26 1665
   336  9.0728e-04  2.6358e-08  5.4924e-08  0:15:29 1664
   337  9.0441e-04  2.6266e-08  5.4722e-08  0:12:23 1663
   338  9.0155e-04  2.6175e-08  5.4522e-08  0:15:26 1662
   339  8.9871e-04  2.6084e-08  5.4324e-08  0:12:21 1661
   340  8.9589e-04  2.5994e-08  5.4127e-08  0:15:24 1660
   341  8.9313e-04  2.5904e-08  5.3932e-08  0:12:19 1659

  iter  continuity  x-velocity  y-velocity     time/iter
   342  8.9032e-04  2.5815e-08  5.3733e-08  0:15:22 1658
   343  8.8752e-04  2.5724e-08  5.3531e-08  0:12:17 1657
   344  8.8478e-04  2.5633e-08  5.3327e-08  0:15:21 1656
   345  8.8208e-04  2.5541e-08  5.3123e-08  0:12:16 1655
   346  8.7938e-04  2.5450e-08  5.2920e-08  0:15:19 1654
   347  8.7669e-04  2.5358e-08  5.2719e-08  0:12:15 1653
   348  8.7400e-04  2.5267e-08  5.2521e-08  0:15:18 1652
   349  8.7132e-04  2.5176e-08  5.2325e-08  0:12:14 1651
   350  8.6869e-04  2.5086e-08  5.2133e-08  0:15:17 1650
   351  8.6606e-04  2.4998e-08  5.1943e-08  0:12:13 1649
   352  8.6344e-04  2.4910e-08  5.1755e-08  0:15:16 1648

  iter  continuity  x-velocity  y-velocity     time/iter
   353  8.6088e-04  2.4822e-08  5.1571e-08  0:12:12 1647
   354  8.5834e-04  2.4736e-08  5.1390e-08  0:15:15 1646
   355  8.5579e-04  2.4650e-08  5.1210e-08  0:12:11 1645
   356  8.5323e-04  2.4564e-08  5.1031e-08  0:15:13 1644
   357  8.5065e-04  2.4480e-08  5.0853e-08  0:12:10 1643
   358  8.4809e-04  2.4396e-08  5.0676e-08  0:15:12 1642
   359  8.4553e-04  2.4314e-08  5.0500e-08  0:12:09 1641
   360  8.4297e-04  2.4232e-08  5.0326e-08  0:15:11 1640
   361  8.4043e-04  2.4151e-08  5.0152e-08  0:12:08 1639
   362  8.3788e-04  2.4070e-08  4.9979e-08  0:15:10 1638
   363  8.3533e-04  2.3990e-08  4.9808e-08  0:12:08 1637

  iter  continuity  x-velocity  y-velocity     time/iter
   364  8.3278e-04  2.3910e-08  4.9637e-08  0:09:42 1636
   365  8.3025e-04  2.3831e-08  4.9467e-08  0:13:12 1635
   366  8.2774e-04  2.3752e-08  4.9298e-08  0:10:33 1634
   367  8.2524e-04  2.3673e-08  4.9131e-08  0:13:53 1633
   368  8.2275e-04  2.3594e-08  4.8965e-08  0:11:06 1632
   369  8.2026e-04  2.3516e-08  4.8800e-08  0:14:19 1631
   370  8.1779e-04  2.3439e-08  4.8638e-08  0:11:26 1630
   371  8.1532e-04  2.3361e-08  4.8475e-08  0:14:35 1629
   372  8.1284e-04  2.3284e-08  4.8312e-08  0:17:05 1628
   373  8.1038e-04  2.3208e-08  4.8151e-08  0:13:39 1627
   374  8.0792e-04  2.3132e-08  4.7992e-08  0:16:20 1626

  iter  continuity  x-velocity  y-velocity     time/iter
   375  8.0550e-04  2.3060e-08  4.7833e-08  0:13:04 1625
   376  8.0307e-04  2.2986e-08  4.7675e-08  0:15:51 1624
   377  8.0065e-04  2.2912e-08  4.7518e-08  0:12:41 1623
   378  7.9825e-04  2.2837e-08  4.7362e-08  0:15:33 1622
   379  7.9587e-04  2.2764e-08  4.7207e-08  0:12:26 1621
   380  7.9352e-04  2.2690e-08  4.7052e-08  0:15:20 1620
   381  7.9119e-04  2.2617e-08  4.6898e-08  0:12:16 1619
   382  7.8888e-04  2.2543e-08  4.6746e-08  0:15:12 1618
   383  7.8658e-04  2.2471e-08  4.6594e-08  0:12:09 1617
   384  7.8427e-04  2.2398e-08  4.6444e-08  0:15:06 1616
   385  7.8196e-04  2.2326e-08  4.6292e-08  0:12:04 1615

  iter  continuity  x-velocity  y-velocity     time/iter
   386  7.7965e-04  2.2253e-08  4.6141e-08  0:15:02 1614
   387  7.7738e-04  2.2181e-08  4.5992e-08  0:12:01 1613
   388  7.7512e-04  2.2109e-08  4.5843e-08  0:14:59 1612
   389  7.7289e-04  2.2038e-08  4.5695e-08  0:11:59 1611
   390  7.7067e-04  2.1968e-08  4.5549e-08  0:14:57 1610
   391  7.6847e-04  2.1897e-08  4.5404e-08  0:11:57 1609
   392  7.6629e-04  2.1827e-08  4.5259e-08  0:14:55 1608
   393  7.6411e-04  2.1758e-08  4.5116e-08  0:11:55 1607
   394  7.6196e-04  2.1689e-08  4.4973e-08  0:14:53 1606
   395  7.5982e-04  2.1620e-08  4.4832e-08  0:11:54 1605
   396  7.5769e-04  2.1552e-08  4.4691e-08  0:14:52 1604

  iter  continuity  x-velocity  y-velocity     time/iter
   397  7.5557e-04  2.1485e-08  4.4550e-08  0:11:53 1603
   398  7.5346e-04  2.1418e-08  4.4411e-08  0:14:50 1602
   399  7.5136e-04  2.1351e-08  4.4273e-08  0:11:52 1601
   400  7.4927e-04  2.1284e-08  4.4137e-08  0:14:49 1600
   401  7.4720e-04  2.1218e-08  4.4001e-08  0:11:51 1599
   402  7.4514e-04  2.1152e-08  4.3866e-08  0:14:48 1598
   403  7.4309e-04  2.1087e-08  4.3732e-08  0:11:50 1597
   404  7.4105e-04  2.1022e-08  4.3598e-08  0:14:47 1596
   405  7.3902e-04  2.0958e-08  4.3466e-08  0:11:49 1595
   406  7.3701e-04  2.0894e-08  4.3333e-08  0:14:46 1594
   407  7.3500e-04  2.0830e-08  4.3202e-08  0:11:48 1593

  iter  continuity  x-velocity  y-velocity     time/iter
   408  7.3301e-04  2.0767e-08  4.3070e-08  0:14:44 1592
   409  7.3103e-04  2.0703e-08  4.2941e-08  0:11:47 1591
   410  7.2905e-04  2.0640e-08  4.2813e-08  0:14:43 1590
   411  7.2706e-04  2.0578e-08  4.2684e-08  0:11:46 1589
   412  7.2506e-04  2.0515e-08  4.2555e-08  0:14:42 1588
   413  7.2306e-04  2.0454e-08  4.2425e-08  0:11:45 1587
   414  7.2107e-04  2.0392e-08  4.2295e-08  0:14:41 1586
   415  7.1907e-04  2.0331e-08  4.2166e-08  0:11:44 1585
   416  7.1708e-04  2.0270e-08  4.2038e-08  0:14:40 1584
   417  7.1509e-04  2.0209e-08  4.1910e-08  0:11:44 1583
   418  7.1311e-04  2.0149e-08  4.1783e-08  0:14:39 1582

  iter  continuity  x-velocity  y-velocity     time/iter
   419  7.1114e-04  2.0089e-08  4.1656e-08  0:11:43 1581
   420  7.0918e-04  2.0029e-08  4.1531e-08  0:14:38 1580
   421  7.0724e-04  1.9969e-08  4.1406e-08  0:11:42 1579
   422  7.0531e-04  1.9910e-08  4.1281e-08  0:14:37 1578
   423  7.0339e-04  1.9851e-08  4.1158e-08  0:11:41 1577
   424  7.0147e-04  1.9793e-08  4.1036e-08  0:14:36 1576
   425  6.9956e-04  1.9734e-08  4.0914e-08  0:11:40 1575
   426  6.9768e-04  1.9676e-08  4.0793e-08  0:14:34 1574
   427  6.9581e-04  1.9618e-08  4.0672e-08  0:11:39 1573
   428  6.9396e-04  1.9561e-08  4.0551e-08  0:14:33 1572
   429  6.9213e-04  1.9504e-08  4.0432e-08  0:11:38 1571

  iter  continuity  x-velocity  y-velocity     time/iter
   430  6.9031e-04  1.9448e-08  4.0315e-08  0:14:32 1570
   431  6.8850e-04  1.9392e-08  4.0198e-08  0:11:37 1569
   432  6.8670e-04  1.9337e-08  4.0081e-08  0:14:31 1568
   433  6.8491e-04  1.9283e-08  3.9964e-08  0:11:36 1567
   434  6.8314e-04  1.9229e-08  3.9849e-08  0:14:30 1566
   435  6.8141e-04  1.9176e-08  3.9733e-08  0:11:36 1565
   436  6.7970e-04  1.9123e-08  3.9619e-08  0:14:29 1564
   437  6.7800e-04  1.9070e-08  3.9505e-08  0:11:35 1563
   438  6.7630e-04  1.9017e-08  3.9394e-08  0:14:28 1562
   439  6.7459e-04  1.8965e-08  3.9283e-08  0:11:34 1561
   440  6.7288e-04  1.8912e-08  3.9171e-08  0:14:27 1560

  iter  continuity  x-velocity  y-velocity     time/iter
   441  6.7117e-04  1.8860e-08  3.9059e-08  0:11:33 1559
   442  6.6946e-04  1.8807e-08  3.8948e-08  0:14:26 1558
   443  6.6774e-04  1.8755e-08  3.8835e-08  0:11:32 1557
   444  6.6601e-04  1.8702e-08  3.8722e-08  0:14:24 1556
   445  6.6427e-04  1.8650e-08  3.8608e-08  0:11:31 1555
   446  6.6254e-04  1.8597e-08  3.8493e-08  0:14:23 1554
   447  6.6080e-04  1.8545e-08  3.8378e-08  0:11:30 1553
   448  6.5906e-04  1.8492e-08  3.8264e-08  0:14:22 1552
   449  6.5731e-04  1.8440e-08  3.8151e-08  0:11:29 1551
   450  6.5555e-04  1.8387e-08  3.8037e-08  0:14:21 1550
   451  6.5377e-04  1.8335e-08  3.7924e-08  0:11:28 1549

  iter  continuity  x-velocity  y-velocity     time/iter
   452  6.5198e-04  1.8283e-08  3.7809e-08  0:14:20 1548
   453  6.5019e-04  1.8230e-08  3.7694e-08  0:11:28 1547
   454  6.4838e-04  1.8177e-08  3.7578e-08  0:14:19 1546
   455  6.4657e-04  1.8125e-08  3.7461e-08  0:11:27 1545
   456  6.4475e-04  1.8072e-08  3.7343e-08  0:14:18 1544
   457  6.4292e-04  1.8020e-08  3.7226e-08  0:11:26 1543
   458  6.4109e-04  1.7967e-08  3.7110e-08  0:14:17 1542
   459  6.3927e-04  1.7914e-08  3.6993e-08  0:11:25 1541
   460  6.3744e-04  1.7862e-08  3.6876e-08  0:14:16 1540
   461  6.3562e-04  1.7809e-08  3.6761e-08  0:11:24 1539
   462  6.3380e-04  1.7757e-08  3.6646e-08  0:14:14 1538

  iter  continuity  x-velocity  y-velocity     time/iter
   463  6.3199e-04  1.7704e-08  3.6532e-08  0:11:23 1537
   464  6.3020e-04  1.7652e-08  3.6419e-08  0:14:13 1536
   465  6.2842e-04  1.7600e-08  3.6307e-08  0:11:22 1535
   466  6.2664e-04  1.7548e-08  3.6196e-08  0:14:12 1534
   467  6.2488e-04  1.7496e-08  3.6087e-08  0:11:21 1533
   468  6.2314e-04  1.7445e-08  3.5979e-08  0:14:11 1532
   469  6.2140e-04  1.7394e-08  3.5872e-08  0:11:20 1531
   470  6.1969e-04  1.7344e-08  3.5765e-08  0:14:10 1530
   471  6.1798e-04  1.7294e-08  3.5660e-08  0:11:20 1529
   472  6.1629e-04  1.7244e-08  3.5556e-08  0:14:09 1528
   473  6.1462e-04  1.7195e-08  3.5452e-08  0:11:19 1527

  iter  continuity  x-velocity  y-velocity     time/iter
   474  6.1296e-04  1.7146e-08  3.5350e-08  0:14:08 1526
   475  6.1130e-04  1.7098e-08  3.5248e-08  0:11:18 1525
   476  6.0966e-04  1.7051e-08  3.5147e-08  0:14:07 1524
   477  6.0803e-04  1.7003e-08  3.5047e-08  0:11:17 1523
   478  6.0641e-04  1.6956e-08  3.4948e-08  0:14:06 1522
   479  6.0481e-04  1.6909e-08  3.4850e-08  0:11:16 1521
   480  6.0322e-04  1.6862e-08  3.4752e-08  0:14:04 1520
   481  6.0162e-04  1.6815e-08  3.4653e-08  0:11:15 1519
   482  6.0002e-04  1.6769e-08  3.4555e-08  0:14:03 1518
   483  5.9842e-04  1.6722e-08  3.4457e-08  0:11:14 1517
   484  5.9683e-04  1.6676e-08  3.4359e-08  0:14:02 1516

  iter  continuity  x-velocity  y-velocity     time/iter
   485  5.9526e-04  1.6630e-08  3.4262e-08  0:11:13 1515
   486  5.9368e-04  1.6584e-08  3.4165e-08  0:14:01 1514
   487  5.9212e-04  1.6538e-08  3.4069e-08  0:11:12 1513
   488  5.9058e-04  1.6493e-08  3.3972e-08  0:14:00 1512
   489  5.8905e-04  1.6447e-08  3.3876e-08  0:11:12 1511
   490  5.8753e-04  1.6402e-08  3.3780e-08  0:13:59 1510
   491  5.8601e-04  1.6357e-08  3.3684e-08  0:11:11 1509
   492  5.8450e-04  1.6312e-08  3.3589e-08  0:13:58 1508
   493  5.8299e-04  1.6268e-08  3.3495e-08  0:11:10 1507
   494  5.8149e-04  1.6223e-08  3.3401e-08  0:13:57 1506
   495  5.7999e-04  1.6179e-08  3.3307e-08  0:11:09 1505

  iter  continuity  x-velocity  y-velocity     time/iter
   496  5.7849e-04  1.6135e-08  3.3213e-08  0:13:56 1504
   497  5.7700e-04  1.6090e-08  3.3119e-08  0:11:08 1503
   498  5.7551e-04  1.6046e-08  3.3026e-08  0:13:54 1502
   499  5.7402e-04  1.6002e-08  3.2932e-08  0:11:07 1501
   500  5.7254e-04  1.5958e-08  3.2839e-08  0:13:53 1500
   501  5.7107e-04  1.5914e-08  3.2747e-08  0:11:06 1499
   502  5.6962e-04  1.5870e-08  3.2656e-08  0:13:52 1498
   503  5.6816e-04  1.5827e-08  3.2565e-08  0:11:05 1497
   504  5.6671e-04  1.5784e-08  3.2475e-08  0:13:51 1496
   505  5.6527e-04  1.5741e-08  3.2384e-08  0:11:04 1495
   506  5.6383e-04  1.5698e-08  3.2295e-08  0:13:50 1494

  iter  continuity  x-velocity  y-velocity     time/iter
   507  5.6241e-04  1.5656e-08  3.2205e-08  0:11:04 1493
   508  5.6099e-04  1.5614e-08  3.2117e-08  0:13:49 1492
   509  5.5957e-04  1.5572e-08  3.2030e-08  0:11:03 1491
   510  5.5815e-04  1.5530e-08  3.1942e-08  0:13:48 1490
   511  5.5673e-04  1.5488e-08  3.1854e-08  0:11:02 1489
   512  5.5532e-04  1.5446e-08  3.1766e-08  0:13:47 1488
   513  5.5391e-04  1.5404e-08  3.1678e-08  0:11:01 1487
   514  5.5250e-04  1.5363e-08  3.1590e-08  0:13:46 1486
   515  5.5110e-04  1.5321e-08  3.1502e-08  0:11:00 1485
   516  5.4972e-04  1.5280e-08  3.1415e-08  0:13:44 1484
   517  5.4833e-04  1.5238e-08  3.1327e-08  0:10:59 1483

  iter  continuity  x-velocity  y-velocity     time/iter
   518  5.4696e-04  1.5197e-08  3.1241e-08  0:13:43 1482
   519  5.4558e-04  1.5157e-08  3.1154e-08  0:15:54 1481
   520  5.4422e-04  1.5116e-08  3.1069e-08  0:12:43 1480
   521  5.4285e-04  1.5075e-08  3.0983e-08  0:15:06 1479
   522  5.4150e-04  1.5035e-08  3.0899e-08  0:12:04 1478
   523  5.4014e-04  1.4994e-08  3.0814e-08  0:14:34 1477
   524  5.3879e-04  1.4954e-08  3.0731e-08  0:11:39 1476
   525  5.3745e-04  1.4914e-08  3.0647e-08  0:14:14 1475
   526  5.3610e-04  1.4874e-08  3.0564e-08  0:11:23 1474
   527  5.3477e-04  1.4834e-08  3.0481e-08  0:14:00 1473
   528  5.3343e-04  1.4794e-08  3.0399e-08  0:11:12 1472

  iter  continuity  x-velocity  y-velocity     time/iter
   529  5.3210e-04  1.4755e-08  3.0317e-08  0:13:51 1471
   530  5.3078e-04  1.4716e-08  3.0236e-08  0:11:05 1470
   531  5.2946e-04  1.4677e-08  3.0155e-08  0:13:45 1469
   532  5.2814e-04  1.4638e-08  3.0074e-08  0:11:00 1468
   533  5.2683e-04  1.4599e-08  2.9994e-08  0:13:41 1467
   534  5.2552e-04  1.4560e-08  2.9914e-08  0:10:56 1466
   535  5.2422e-04  1.4522e-08  2.9834e-08  0:13:38 1465
   536  5.2292e-04  1.4484e-08  2.9754e-08  0:10:54 1464
   537  5.2162e-04  1.4446e-08  2.9675e-08  0:13:35 1463
   538  5.2032e-04  1.4408e-08  2.9596e-08  0:10:52 1462
   539  5.1903e-04  1.4371e-08  2.9518e-08  0:13:33 1461

  iter  continuity  x-velocity  y-velocity     time/iter
   540  5.1774e-04  1.4333e-08  2.9439e-08  0:10:50 1460
   541  5.1646e-04  1.4296e-08  2.9361e-08  0:13:32 1459
   542  5.1517e-04  1.4259e-08  2.9284e-08  0:10:49 1458
   543  5.1390e-04  1.4222e-08  2.9206e-08  0:08:39 1457
   544  5.1262e-04  1.4185e-08  2.9129e-08  0:11:46 1456
   545  5.1134e-04  1.4149e-08  2.9052e-08  0:09:24 1455
   546  5.1007e-04  1.4112e-08  2.8975e-08  0:12:22 1454
   547  5.0881e-04  1.4076e-08  2.8899e-08  0:09:53 1453
   548  5.0754e-04  1.4039e-08  2.8823e-08  0:12:45 1452
   549  5.0627e-04  1.4003e-08  2.8747e-08  0:10:11 1451
   550  5.0501e-04  1.3967e-08  2.8672e-08  0:12:59 1450

  iter  continuity  x-velocity  y-velocity     time/iter
   551  5.0374e-04  1.3931e-08  2.8596e-08  0:10:22 1449
   552  5.0248e-04  1.3895e-08  2.8521e-08  0:13:07 1448
   553  5.0122e-04  1.3859e-08  2.8446e-08  0:10:29 1447
   554  4.9997e-04  1.3823e-08  2.8372e-08  0:13:12 1446
   555  4.9871e-04  1.3788e-08  2.8298e-08  0:10:33 1445
   556  4.9746e-04  1.3753e-08  2.8224e-08  0:13:15 1444
   557  4.9622e-04  1.3717e-08  2.8150e-08  0:10:36 1443
   558  4.9497e-04  1.3682e-08  2.8077e-08  0:13:17 1442
   559  4.9374e-04  1.3648e-08  2.8004e-08  0:10:37 1441
   560  4.9250e-04  1.3613e-08  2.7931e-08  0:13:17 1440
   561  4.9127e-04  1.3578e-08  2.7858e-08  0:10:37 1439

  iter  continuity  x-velocity  y-velocity     time/iter
   562  4.9004e-04  1.3544e-08  2.7786e-08  0:13:17 1438
   563  4.8882e-04  1.3509e-08  2.7714e-08  0:10:37 1437
   564  4.8760e-04  1.3475e-08  2.7643e-08  0:13:17 1436
   565  4.8639e-04  1.3441e-08  2.7572e-08  0:10:37 1435
   566  4.8518e-04  1.3406e-08  2.7501e-08  0:13:16 1434
   567  4.8398e-04  1.3373e-08  2.7431e-08  0:15:23 1433
   568  4.8278e-04  1.3339e-08  2.7361e-08  0:12:18 1432
   569  4.8153e-04  1.3305e-08  2.7289e-08  0:14:36 1431
   570  4.8026e-04  1.3272e-08  2.7215e-08  0:11:40 1430
   571  4.7899e-04  1.3238e-08  2.7140e-08  0:09:20 1429
   572  4.7773e-04  1.3203e-08  2.7065e-08  0:12:13 1428

  iter  continuity  x-velocity  y-velocity     time/iter
   573  4.7649e-04  1.3169e-08  2.6991e-08  0:09:46 1427
   574  4.7525e-04  1.3134e-08  2.6917e-08  0:12:34 1426
   575  4.7403e-04  1.3100e-08  2.6844e-08  0:10:03 1425
   576  4.7281e-04  1.3066e-08  2.6773e-08  0:12:47 1424
   577  4.7160e-04  1.3031e-08  2.6701e-08  0:10:13 1423
   578  4.7039e-04  1.2997e-08  2.6630e-08  0:12:54 1422
   579  4.6920e-04  1.2964e-08  2.6560e-08  0:10:19 1421
   580  4.6801e-04  1.2930e-08  2.6491e-08  0:12:59 1420
   581  4.6683e-04  1.2897e-08  2.6422e-08  0:10:23 1419
   582  4.6565e-04  1.2864e-08  2.6354e-08  0:13:01 1418
   583  4.6448e-04  1.2831e-08  2.6286e-08  0:10:25 1417

  iter  continuity  x-velocity  y-velocity     time/iter
   584  4.6332e-04  1.2798e-08  2.6218e-08  0:13:03 1416
   585  4.6216e-04  1.2766e-08  2.6150e-08  0:10:26 1415
   586  4.6100e-04  1.2734e-08  2.6083e-08  0:13:03 1414
   587  4.5985e-04  1.2702e-08  2.6016e-08  0:10:26 1413
   588  4.5871e-04  1.2670e-08  2.5949e-08  0:13:03 1412
   589  4.5757e-04  1.2638e-08  2.5883e-08  0:10:26 1411
   590  4.5644e-04  1.2607e-08  2.5817e-08  0:13:02 1410
   591  4.5531e-04  1.2575e-08  2.5751e-08  0:10:25 1409
   592  4.5419e-04  1.2544e-08  2.5686e-08  0:13:02 1408
   593  4.5308e-04  1.2513e-08  2.5621e-08  0:10:25 1407
   594  4.5196e-04  1.2482e-08  2.5556e-08  0:13:01 1406

  iter  continuity  x-velocity  y-velocity     time/iter
   595  4.5086e-04  1.2451e-08  2.5492e-08  0:10:24 1405
   596  4.4975e-04  1.2420e-08  2.5428e-08  0:13:00 1404
   597  4.4863e-04  1.2390e-08  2.5363e-08  0:10:23 1403
   598  4.4752e-04  1.2359e-08  2.5299e-08  0:12:59 1402
   599  4.4642e-04  1.2328e-08  2.5235e-08  0:10:23 1401
   600  4.4533e-04  1.2298e-08  2.5171e-08  0:12:58 1400
   601  4.4424e-04  1.2267e-08  2.5107e-08  0:10:22 1399
   602  4.4316e-04  1.2237e-08  2.5044e-08  0:12:57 1398
   603  4.4207e-04  1.2206e-08  2.4981e-08  0:10:21 1397
   604  4.4099e-04  1.2176e-08  2.4917e-08  0:12:56 1396
   605  4.3990e-04  1.2146e-08  2.4854e-08  0:10:20 1395

  iter  continuity  x-velocity  y-velocity     time/iter
   606  4.3883e-04  1.2116e-08  2.4791e-08  0:12:54 1394
   607  4.3776e-04  1.2086e-08  2.4728e-08  0:10:19 1393
   608  4.3670e-04  1.2056e-08  2.4666e-08  0:12:53 1392
   609  4.3565e-04  1.2026e-08  2.4605e-08  0:10:18 1391
   610  4.3461e-04  1.1997e-08  2.4543e-08  0:12:52 1390
   611  4.3358e-04  1.1968e-08  2.4483e-08  0:10:17 1389
   612  4.3256e-04  1.1939e-08  2.4423e-08  0:12:51 1388
   613  4.3155e-04  1.1911e-08  2.4364e-08  0:10:16 1387
   614  4.3056e-04  1.1882e-08  2.4305e-08  0:12:50 1386
   615  4.2958e-04  1.1853e-08  2.4246e-08  0:10:16 1385
   616  4.2860e-04  1.1823e-08  2.4188e-08  0:12:49 1384

  iter  continuity  x-velocity  y-velocity     time/iter
   617  4.2764e-04  1.1794e-08  2.4132e-08  0:10:15 1383
   618  4.2668e-04  1.1765e-08  2.4076e-08  0:12:48 1382
   619  4.2575e-04  1.1737e-08  2.4021e-08  0:10:14 1381
   620  4.2482e-04  1.1709e-08  2.3967e-08  0:12:47 1380
   621  4.2392e-04  1.1683e-08  2.3914e-08  0:10:13 1379
   622  4.2303e-04  1.1656e-08  2.3861e-08  0:12:46 1378
   623  4.2216e-04  1.1631e-08  2.3810e-08  0:10:12 1377
   624  4.2131e-04  1.1606e-08  2.3759e-08  0:12:44 1376
   625  4.2049e-04  1.1582e-08  2.3709e-08  0:10:11 1375
   626  4.1969e-04  1.1558e-08  2.3661e-08  0:12:43 1374
   627  4.1892e-04  1.1535e-08  2.3614e-08  0:10:10 1373

  iter  continuity  x-velocity  y-velocity     time/iter
   628  4.1818e-04  1.1513e-08  2.3568e-08  0:12:42 1372
   629  4.1747e-04  1.1491e-08  2.3524e-08  0:10:09 1371
   630  4.1679e-04  1.1470e-08  2.3482e-08  0:12:41 1370
   631  4.1616e-04  1.1449e-08  2.3442e-08  0:10:08 1369
   632  4.1559e-04  1.1429e-08  2.3404e-08  0:12:40 1368
   633  4.1506e-04  1.1410e-08  2.3368e-08  0:10:08 1367
   634  4.1458e-04  1.1391e-08  2.3335e-08  0:12:39 1366
   635  4.1417e-04  1.1374e-08  2.3304e-08  0:10:07 1365
   636  4.1382e-04  1.1357e-08  2.3277e-08  0:12:38 1364
   637  4.1353e-04  1.1341e-08  2.3251e-08  0:10:06 1363
   638  4.1330e-04  1.1327e-08  2.3229e-08  0:12:37 1362

  iter  continuity  x-velocity  y-velocity     time/iter
   639  4.1311e-04  1.1314e-08  2.3208e-08  0:10:05 1361
   640  4.1295e-04  1.1301e-08  2.3189e-08  0:12:36 1360
   641  4.1284e-04  1.1289e-08  2.3172e-08  0:10:04 1359
   642  4.1274e-04  1.1278e-08  2.3154e-08  0:12:34 1358
   643  4.1261e-04  1.1267e-08  2.3136e-08  0:10:03 1357
   644  4.1242e-04  1.1256e-08  2.3115e-08  0:12:33 1356
   645  4.1211e-04  1.1244e-08  2.3090e-08  0:10:02 1355
   646  4.1169e-04  1.1230e-08  2.3059e-08  0:12:32 1354
   647  4.1111e-04  1.1214e-08  2.3022e-08  0:10:01 1353
   648  4.1035e-04  1.1196e-08  2.2976e-08  0:12:31 1352
   649  4.0942e-04  1.1175e-08  2.2923e-08  0:10:00 1351

  iter  continuity  x-velocity  y-velocity     time/iter
   650  4.0833e-04  1.1150e-08  2.2863e-08  0:12:30 1350
   651  4.0708e-04  1.1124e-08  2.2798e-08  0:10:00 1349
   652  4.0571e-04  1.1096e-08  2.2726e-08  0:12:29 1348
   653  4.0425e-04  1.1066e-08  2.2650e-08  0:09:59 1347
   654  4.0271e-04  1.1034e-08  2.2569e-08  0:12:28 1346
   655  4.0113e-04  1.1001e-08  2.2485e-08  0:09:58 1345
   656  3.9954e-04  1.0967e-08  2.2400e-08  0:12:27 1344
   657  3.9798e-04  1.0932e-08  2.2315e-08  0:09:57 1343
   658  3.9643e-04  1.0897e-08  2.2231e-08  0:12:26 1342
   659  3.9492e-04  1.0863e-08  2.2147e-08  0:09:56 1341
   660  3.9343e-04  1.0830e-08  2.2066e-08  0:12:24 1340

  iter  continuity  x-velocity  y-velocity     time/iter
   661  3.9200e-04  1.0798e-08  2.1989e-08  0:09:55 1339
   662  3.9061e-04  1.0766e-08  2.1916e-08  0:12:23 1338
   663  3.8929e-04  1.0734e-08  2.1845e-08  0:09:54 1337
   664  3.8805e-04  1.0703e-08  2.1777e-08  0:12:22 1336
   665  3.8685e-04  1.0672e-08  2.1711e-08  0:14:20 1335
   666  3.8568e-04  1.0642e-08  2.1648e-08  0:11:28 1334
   667  3.8453e-04  1.0612e-08  2.1588e-08  0:13:36 1333
   668  3.8339e-04  1.0583e-08  2.1528e-08  0:10:53 1332
   669  3.8228e-04  1.0554e-08  2.1469e-08  0:13:08 1331
   670  3.8121e-04  1.0526e-08  2.1412e-08  0:10:30 1330
   671  3.8015e-04  1.0498e-08  2.1355e-08  0:12:49 1329

  iter  continuity  x-velocity  y-velocity     time/iter
   672  3.7912e-04  1.0471e-08  2.1299e-08  0:10:15 1328
   673  3.7811e-04  1.0444e-08  2.1245e-08  0:12:37 1327
   674  3.7711e-04  1.0418e-08  2.1192e-08  0:10:05 1326
   675  3.7614e-04  1.0392e-08  2.1139e-08  0:12:29 1325
   676  3.7519e-04  1.0367e-08  2.1087e-08  0:09:59 1324
   677  3.7428e-04  1.0342e-08  2.1036e-08  0:12:23 1323
   678  3.7341e-04  1.0317e-08  2.0985e-08  0:09:54 1322
   679  3.7257e-04  1.0293e-08  2.0935e-08  0:12:19 1321
   680  3.7173e-04  1.0269e-08  2.0885e-08  0:09:51 1320
   681  3.7092e-04  1.0245e-08  2.0837e-08  0:12:16 1319
   682  3.7012e-04  1.0222e-08  2.0789e-08  0:09:48 1318

  iter  continuity  x-velocity  y-velocity     time/iter
   683  3.6932e-04  1.0198e-08  2.0741e-08  0:12:14 1317
   684  3.6852e-04  1.0175e-08  2.0693e-08  0:09:47 1316
   685  3.6772e-04  1.0152e-08  2.0646e-08  0:12:12 1315
   686  3.6691e-04  1.0129e-08  2.0598e-08  0:09:45 1314
   687  3.6611e-04  1.0106e-08  2.0551e-08  0:12:10 1313
   688  3.6532e-04  1.0083e-08  2.0504e-08  0:09:44 1312
   689  3.6454e-04  1.0061e-08  2.0457e-08  0:12:09 1311
   690  3.6376e-04  1.0039e-08  2.0411e-08  0:09:43 1310
   691  3.6299e-04  1.0016e-08  2.0364e-08  0:07:46 1309
   692  3.6221e-04  9.9940e-09  2.0318e-08  0:10:34 1308
   693  3.6143e-04  9.9718e-09  2.0272e-08  0:08:27 1307

  iter  continuity  x-velocity  y-velocity     time/iter
   694  3.6065e-04  9.9497e-09  2.0226e-08  0:11:06 1306
   695  3.5987e-04  9.9277e-09  2.0180e-08  0:08:53 1305
   696  3.5909e-04  9.9056e-09  2.0135e-08  0:11:27 1304
   697  3.5830e-04  9.8836e-09  2.0089e-08  0:09:09 1303
   698  3.5750e-04  9.8615e-09  2.0043e-08  0:11:39 1302
   699  3.5670e-04  9.8393e-09  1.9996e-08  0:09:19 1301
   700  3.5590e-04  9.8171e-09  1.9950e-08  0:11:47 1300
   701  3.5508e-04  9.7948e-09  1.9903e-08  0:09:25 1299
   702  3.5426e-04  9.7725e-09  1.9856e-08  0:11:51 1298
   703  3.5344e-04  9.7500e-09  1.9810e-08  0:09:29 1297
   704  3.5260e-04  9.7273e-09  1.9763e-08  0:11:54 1296

  iter  continuity  x-velocity  y-velocity     time/iter
   705  3.5176e-04  9.7047e-09  1.9716e-08  0:09:31 1295
   706  3.5091e-04  9.6820e-09  1.9669e-08  0:11:55 1294
   707  3.5006e-04  9.6594e-09  1.9621e-08  0:09:31 1293
   708  3.4920e-04  9.6366e-09  1.9574e-08  0:11:55 1292
   709  3.4834e-04  9.6136e-09  1.9526e-08  0:09:32 1291
   710  3.4748e-04  9.5907e-09  1.9478e-08  0:11:55 1290
   711  3.4661e-04  9.5678e-09  1.9430e-08  0:09:32 1289
   712  3.4575e-04  9.5449e-09  1.9382e-08  0:11:55 1288
   713  3.4488e-04  9.5219e-09  1.9334e-08  0:09:31 1287
   714  3.4402e-04  9.4991e-09  1.9285e-08  0:11:54 1286
   715  3.4317e-04  9.4761e-09  1.9237e-08  0:13:48 1285

  iter  continuity  x-velocity  y-velocity     time/iter
   716  3.4231e-04  9.4532e-09  1.9190e-08  0:11:02 1284
   717  3.4147e-04  9.4304e-09  1.9142e-08  0:13:05 1283
   718  3.4063e-04  9.4077e-09  1.9095e-08  0:10:28 1282
   719  3.3979e-04  9.3850e-09  1.9049e-08  0:12:38 1281
   720  3.3896e-04  9.3624e-09  1.9003e-08  0:10:06 1280
   721  3.3814e-04  9.3399e-09  1.8957e-08  0:12:20 1279
   722  3.3731e-04  9.3176e-09  1.8912e-08  0:09:52 1278
   723  3.3650e-04  9.2954e-09  1.8866e-08  0:12:08 1277
   724  3.3569e-04  9.2732e-09  1.8820e-08  0:09:42 1276
   725  3.3489e-04  9.2511e-09  1.8774e-08  0:12:00 1275
   726  3.3410e-04  9.2290e-09  1.8727e-08  0:09:36 1274

  iter  continuity  x-velocity  y-velocity     time/iter
   727  3.3331e-04  9.2068e-09  1.8681e-08  0:11:55 1273
   728  3.3252e-04  9.1846e-09  1.8635e-08  0:09:32 1272
   729  3.3174e-04  9.1625e-09  1.8589e-08  0:11:51 1271
   730  3.3096e-04  9.1404e-09  1.8543e-08  0:09:28 1270
   731  3.3019e-04  9.1183e-09  1.8497e-08  0:11:48 1269
   732  3.2941e-04  9.0963e-09  1.8452e-08  0:09:26 1268
   733  3.2865e-04  9.0745e-09  1.8406e-08  0:11:46 1267
   734  3.2788e-04  9.0527e-09  1.8361e-08  0:09:24 1266
   735  3.2712e-04  9.0310e-09  1.8316e-08  0:11:44 1265
   736  3.2637e-04  9.0094e-09  1.8271e-08  0:09:23 1264
   737  3.2561e-04  8.9880e-09  1.8227e-08  0:11:42 1263

  iter  continuity  x-velocity  y-velocity     time/iter
   738  3.2487e-04  8.9666e-09  1.8182e-08  0:09:22 1262
   739  3.2412e-04  8.9454e-09  1.8138e-08  0:11:41 1261
   740  3.2339e-04  8.9243e-09  1.8094e-08  0:09:20 1260
   741  3.2265e-04  8.9033e-09  1.8050e-08  0:11:40 1259
   742  3.2192e-04  8.8824e-09  1.8006e-08  0:09:19 1258
   743  3.2119e-04  8.8617e-09  1.7963e-08  0:07:27 1257
   744  3.2047e-04  8.8410e-09  1.7919e-08  0:10:09 1256
   745  3.1975e-04  8.8204e-09  1.7876e-08  0:08:07 1255
   746  3.1904e-04  8.8000e-09  1.7834e-08  0:10:40 1254
   747  3.1833e-04  8.7798e-09  1.7791e-08  0:08:31 1253
   748  3.1762e-04  8.7596e-09  1.7749e-08  0:10:59 1252

  iter  continuity  x-velocity  y-velocity     time/iter
   749  3.1693e-04  8.7396e-09  1.7707e-08  0:08:47 1251
   750  3.1623e-04  8.7196e-09  1.7665e-08  0:11:11 1250
   751  3.1554e-04  8.6997e-09  1.7624e-08  0:08:57 1249
   752  3.1485e-04  8.6799e-09  1.7583e-08  0:11:18 1248
   753  3.1416e-04  8.6603e-09  1.7541e-08  0:09:02 1247
   754  3.1347e-04  8.6407e-09  1.7500e-08  0:11:23 1246
   755  3.1279e-04  8.6212e-09  1.7459e-08  0:09:06 1245
   756  3.1210e-04  8.6017e-09  1.7418e-08  0:11:25 1244
   757  3.1142e-04  8.5824e-09  1.7378e-08  0:09:08 1243
   758  3.1074e-04  8.5632e-09  1.7337e-08  0:11:26 1242
   759  3.1007e-04  8.5440e-09  1.7297e-08  0:09:08 1241

  iter  continuity  x-velocity  y-velocity     time/iter
   760  3.0939e-04  8.5249e-09  1.7257e-08  0:11:26 1240
   761  3.0873e-04  8.5060e-09  1.7217e-08  0:09:09 1239
   762  3.0807e-04  8.4871e-09  1.7177e-08  0:11:26 1238
   763  3.0741e-04  8.4683e-09  1.7137e-08  0:13:16 1237
   764  3.0675e-04  8.4496e-09  1.7098e-08  0:10:36 1236
   765  3.0610e-04  8.4310e-09  1.7059e-08  0:12:36 1235
   766  3.0545e-04  8.4125e-09  1.7020e-08  0:10:04 1234
   767  3.0481e-04  8.3941e-09  1.6981e-08  0:12:09 1233
   768  3.0416e-04  8.3759e-09  1.6942e-08  0:09:43 1232
   769  3.0352e-04  8.3577e-09  1.6904e-08  0:11:52 1231
   770  3.0289e-04  8.3398e-09  1.6866e-08  0:09:29 1230

  iter  continuity  x-velocity  y-velocity     time/iter
   771  3.0225e-04  8.3219e-09  1.6828e-08  0:11:41 1229
   772  3.0162e-04  8.3041e-09  1.6790e-08  0:09:20 1228
   773  3.0099e-04  8.2864e-09  1.6753e-08  0:11:33 1227
   774  3.0036e-04  8.2688e-09  1.6715e-08  0:09:14 1226
   775  2.9973e-04  8.2514e-09  1.6678e-08  0:11:28 1225
   776  2.9911e-04  8.2340e-09  1.6641e-08  0:09:10 1224
   777  2.9850e-04  8.2168e-09  1.6605e-08  0:11:24 1223
   778  2.9789e-04  8.1997e-09  1.6568e-08  0:09:07 1222
   779  2.9728e-04  8.1827e-09  1.6532e-08  0:11:21 1221
   780  2.9667e-04  8.1658e-09  1.6496e-08  0:09:05 1220
   781  2.9607e-04  8.1490e-09  1.6461e-08  0:11:19 1219

  iter  continuity  x-velocity  y-velocity     time/iter
   782  2.9547e-04  8.1323e-09  1.6426e-08  0:09:03 1218
   783  2.9488e-04  8.1157e-09  1.6391e-08  0:11:17 1217
   784  2.9429e-04  8.0992e-09  1.6356e-08  0:09:01 1216
   785  2.9370e-04  8.0829e-09  1.6322e-08  0:11:16 1215
   786  2.9311e-04  8.0666e-09  1.6287e-08  0:09:00 1214
   787  2.9252e-04  8.0505e-09  1.6253e-08  0:11:14 1213
   788  2.9194e-04  8.0344e-09  1.6219e-08  0:08:59 1212
   789  2.9136e-04  8.0184e-09  1.6185e-08  0:11:13 1211
   790  2.9078e-04  8.0026e-09  1.6152e-08  0:08:58 1210
   791  2.9022e-04  7.9868e-09  1.6118e-08  0:11:12 1209
   792  2.8966e-04  7.9712e-09  1.6085e-08  0:08:57 1208

  iter  continuity  x-velocity  y-velocity     time/iter
   793  2.8910e-04  7.9557e-09  1.6052e-08  0:11:11 1207
   794  2.8855e-04  7.9404e-09  1.6019e-08  0:08:56 1206
   795  2.8800e-04  7.9252e-09  1.5986e-08  0:11:10 1205
   796  2.8746e-04  7.9102e-09  1.5954e-08  0:08:55 1204
   797  2.8691e-04  7.8952e-09  1.5921e-08  0:11:08 1203
   798  2.8637e-04  7.8802e-09  1.5890e-08  0:08:54 1202
   799  2.8584e-04  7.8653e-09  1.5858e-08  0:11:07 1201
   800  2.8531e-04  7.8504e-09  1.5826e-08  0:08:53 1200
   801  2.8478e-04  7.8356e-09  1.5795e-08  0:11:06 1199
   802  2.8425e-04  7.8208e-09  1.5763e-08  0:08:52 1198
   803  2.8372e-04  7.8060e-09  1.5732e-08  0:11:05 1197

  iter  continuity  x-velocity  y-velocity     time/iter
   804  2.8318e-04  7.7906e-09  1.5701e-08  0:08:52 1196
   805  2.8264e-04  7.7754e-09  1.5669e-08  0:11:04 1195
   806  2.8212e-04  7.7605e-09  1.5638e-08  0:08:51 1194
   807  2.8159e-04  7.7458e-09  1.5606e-08  0:11:03 1193
   808  2.8106e-04  7.7311e-09  1.5574e-08  0:08:50 1192
   809  2.8054e-04  7.7163e-09  1.5543e-08  0:11:02 1191
   810  2.8001e-04  7.7016e-09  1.5512e-08  0:08:49 1190
   811  2.7949e-04  7.6868e-09  1.5480e-08  0:11:01 1189
   812  2.7897e-04  7.6720e-09  1.5449e-08  0:08:48 1188
   813  2.7844e-04  7.6572e-09  1.5418e-08  0:10:59 1187
   814  2.7792e-04  7.6424e-09  1.5388e-08  0:08:47 1186

  iter  continuity  x-velocity  y-velocity     time/iter
   815  2.7740e-04  7.6276e-09  1.5357e-08  0:10:58 1185
   816  2.7689e-04  7.6129e-09  1.5327e-08  0:08:46 1184
   817  2.7638e-04  7.5982e-09  1.5297e-08  0:10:57 1183
   818  2.7587e-04  7.5836e-09  1.5267e-08  0:08:45 1182
   819  2.7537e-04  7.5690e-09  1.5237e-08  0:10:56 1181
   820  2.7486e-04  7.5545e-09  1.5206e-08  0:08:44 1180
   821  2.7436e-04  7.5400e-09  1.5176e-08  0:10:55 1179
   822  2.7385e-04  7.5255e-09  1.5146e-08  0:08:44 1178
   823  2.7335e-04  7.5110e-09  1.5116e-08  0:10:54 1177
   824  2.7285e-04  7.4966e-09  1.5086e-08  0:08:43 1176
   825  2.7235e-04  7.4821e-09  1.5056e-08  0:10:53 1175

  iter  continuity  x-velocity  y-velocity     time/iter
   826  2.7184e-04  7.4676e-09  1.5026e-08  0:08:42 1174
   827  2.7134e-04  7.4532e-09  1.4996e-08  0:10:52 1173
   828  2.7083e-04  7.4387e-09  1.4966e-08  0:08:41 1172
   829  2.7033e-04  7.4242e-09  1.4936e-08  0:10:51 1171
   830  2.6983e-04  7.4097e-09  1.4906e-08  0:08:40 1170
   831  2.6932e-04  7.3951e-09  1.4876e-08  0:10:49 1169
   832  2.6881e-04  7.3805e-09  1.4845e-08  0:08:39 1168
   833  2.6830e-04  7.3659e-09  1.4815e-08  0:10:48 1167
   834  2.6780e-04  7.3513e-09  1.4785e-08  0:08:38 1166
   835  2.6728e-04  7.3366e-09  1.4755e-08  0:10:47 1165
   836  2.6677e-04  7.3219e-09  1.4725e-08  0:08:37 1164

  iter  continuity  x-velocity  y-velocity     time/iter
   837  2.6625e-04  7.3071e-09  1.4694e-08  0:10:46 1163
   838  2.6574e-04  7.2923e-09  1.4664e-08  0:08:36 1162
   839  2.6522e-04  7.2775e-09  1.4633e-08  0:10:45 1161
   840  2.6470e-04  7.2626e-09  1.4603e-08  0:08:36 1160
   841  2.6419e-04  7.2477e-09  1.4572e-08  0:10:44 1159
   842  2.6367e-04  7.2328e-09  1.4542e-08  0:08:35 1158
   843  2.6315e-04  7.2179e-09  1.4511e-08  0:10:43 1157
   844  2.6264e-04  7.2030e-09  1.4481e-08  0:08:34 1156
   845  2.6212e-04  7.1881e-09  1.4451e-08  0:10:42 1155
   846  2.6161e-04  7.1732e-09  1.4420e-08  0:08:33 1154
   847  2.6109e-04  7.1583e-09  1.4390e-08  0:10:41 1153

  iter  continuity  x-velocity  y-velocity     time/iter
   848  2.6059e-04  7.1434e-09  1.4360e-08  0:08:32 1152
   849  2.6011e-04  7.1284e-09  1.4331e-08  0:10:39 1151
   850  2.5962e-04  7.1135e-09  1.4301e-08  0:08:31 1150
   851  2.5914e-04  7.0985e-09  1.4272e-08  0:10:38 1149
   852  2.5865e-04  7.0835e-09  1.4242e-08  0:08:30 1148
   853  2.5817e-04  7.0686e-09  1.4212e-08  0:10:37 1147
   854  2.5768e-04  7.0536e-09  1.4183e-08  0:08:29 1146
   855  2.5718e-04  7.0384e-09  1.4153e-08  0:06:47 1145
   856  2.5667e-04  7.0234e-09  1.4124e-08  0:09:14 1144
   857  2.5617e-04  7.0084e-09  1.4093e-08  0:07:23 1143
   858  2.5567e-04  6.9934e-09  1.4063e-08  0:09:42 1142

  iter  continuity  x-velocity  y-velocity     time/iter
   859  2.5517e-04  6.9786e-09  1.4031e-08  0:11:34 1141
   860  2.5467e-04  6.9638e-09  1.4000e-08  0:09:15 1140
   861  2.5417e-04  6.9490e-09  1.3970e-08  0:11:11 1139
   862  2.5367e-04  6.9343e-09  1.3939e-08  0:08:56 1138
   863  2.5317e-04  6.9195e-09  1.3909e-08  0:10:56 1137
   864  2.5267e-04  6.9048e-09  1.3879e-08  0:08:44 1136
   865  2.5214e-04  6.8900e-09  1.3847e-08  0:10:46 1135
   866  2.5158e-04  6.8749e-09  1.3815e-08  0:08:36 1134
   867  2.5100e-04  6.8593e-09  1.3782e-08  0:10:39 1133
   868  2.5042e-04  6.8434e-09  1.3748e-08  0:08:31 1132
   869  2.4984e-04  6.8273e-09  1.3715e-08  0:10:35 1131

  iter  continuity  x-velocity  y-velocity     time/iter
   870  2.4926e-04  6.8111e-09  1.3681e-08  0:08:27 1130
   871  2.4869e-04  6.7948e-09  1.3647e-08  0:10:31 1129
   872  2.4811e-04  6.7785e-09  1.3613e-08  0:08:25 1128
   873  2.4754e-04  6.7625e-09  1.3580e-08  0:10:29 1127
   874  2.4697e-04  6.7466e-09  1.3548e-08  0:08:23 1126
   875  2.4640e-04  6.7306e-09  1.3515e-08  0:10:27 1125
   876  2.4585e-04  6.7147e-09  1.3483e-08  0:08:21 1124
   877  2.4530e-04  6.6988e-09  1.3451e-08  0:10:25 1123
   878  2.4476e-04  6.6829e-09  1.3419e-08  0:08:20 1122
   879  2.4421e-04  6.6670e-09  1.3387e-08  0:10:23 1121
   880  2.4366e-04  6.6511e-09  1.3355e-08  0:08:18 1120

  iter  continuity  x-velocity  y-velocity     time/iter
   881  2.4312e-04  6.6352e-09  1.3323e-08  0:10:22 1119
   882  2.4259e-04  6.6194e-09  1.3291e-08  0:08:17 1118
   883  2.4205e-04  6.6035e-09  1.3259e-08  0:10:21 1117
   884  2.4152e-04  6.5877e-09  1.3227e-08  0:08:16 1116
   885  2.4099e-04  6.5719e-09  1.3195e-08  0:10:20 1115
   886  2.4046e-04  6.5561e-09  1.3163e-08  0:08:15 1114
   887  2.3993e-04  6.5404e-09  1.3132e-08  0:10:18 1113
   888  2.3940e-04  6.5247e-09  1.3100e-08  0:08:14 1112
   889  2.3887e-04  6.5090e-09  1.3068e-08  0:10:17 1111
   890  2.3834e-04  6.4933e-09  1.3036e-08  0:08:13 1110
   891  2.3782e-04  6.4776e-09  1.3004e-08  0:10:16 1109

  iter  continuity  x-velocity  y-velocity     time/iter
   892  2.3729e-04  6.4618e-09  1.2972e-08  0:08:12 1108
   893  2.3676e-04  6.4460e-09  1.2940e-08  0:06:34 1107
   894  2.3624e-04  6.4303e-09  1.2908e-08  0:08:56 1106
   895  2.3571e-04  6.4145e-09  1.2876e-08  0:07:08 1105
   896  2.3519e-04  6.3987e-09  1.2845e-08  0:09:23 1104
   897  2.3466e-04  6.3830e-09  1.2812e-08  0:11:11 1103
   898  2.3413e-04  6.3672e-09  1.2780e-08  0:08:56 1102
   899  2.3360e-04  6.3515e-09  1.2748e-08  0:10:49 1101
   900  2.3307e-04  6.3357e-09  1.2716e-08  0:08:38 1100
   901  2.3254e-04  6.3199e-09  1.2684e-08  0:06:54 1099
   902  2.3201e-04  6.3042e-09  1.2652e-08  0:09:11 1098

  iter  continuity  x-velocity  y-velocity     time/iter
   903  2.3149e-04  6.2886e-09  1.2620e-08  0:07:20 1097
   904  2.3096e-04  6.2729e-09  1.2589e-08  0:09:31 1096
   905  2.3044e-04  6.2573e-09  1.2557e-08  0:07:36 1095
   906  2.2992e-04  6.2416e-09  1.2526e-08  0:09:44 1094
   907  2.2940e-04  6.2261e-09  1.2494e-08  0:07:46 1093
   908  2.2888e-04  6.2105e-09  1.2463e-08  0:09:51 1092
   909  2.2837e-04  6.1950e-09  1.2432e-08  0:11:31 1091
   910  2.2785e-04  6.1796e-09  1.2401e-08  0:09:12 1090
   911  2.2734e-04  6.1642e-09  1.2370e-08  0:10:59 1089
   912  2.2683e-04  6.1489e-09  1.2339e-08  0:08:47 1088
   913  2.2632e-04  6.1337e-09  1.2308e-08  0:10:38 1087

  iter  continuity  x-velocity  y-velocity     time/iter
   914  2.2581e-04  6.1187e-09  1.2277e-08  0:08:30 1086
   915  2.2530e-04  6.1037e-09  1.2246e-08  0:10:25 1085
   916  2.2481e-04  6.0888e-09  1.2216e-08  0:08:19 1084
   917  2.2431e-04  6.0740e-09  1.2185e-08  0:10:16 1083
   918  2.2381e-04  6.0592e-09  1.2155e-08  0:08:12 1082
   919  2.2331e-04  6.0444e-09  1.2125e-08  0:10:10 1081
   920  2.2282e-04  6.0297e-09  1.2095e-08  0:08:07 1080
   921  2.2232e-04  6.0152e-09  1.2065e-08  0:10:05 1079
   922  2.2183e-04  6.0007e-09  1.2036e-08  0:08:04 1078
   923  2.2134e-04  5.9862e-09  1.2006e-08  0:10:02 1077
   924  2.2085e-04  5.9719e-09  1.1977e-08  0:08:01 1076

  iter  continuity  x-velocity  y-velocity     time/iter
   925  2.2036e-04  5.9576e-09  1.1948e-08  0:10:00 1075
   926  2.1987e-04  5.9433e-09  1.1919e-08  0:07:59 1074
   927  2.1938e-04  5.9292e-09  1.1890e-08  0:09:58 1073
   928  2.1890e-04  5.9151e-09  1.1861e-08  0:07:58 1072
   929  2.1842e-04  5.9010e-09  1.1833e-08  0:09:56 1071
   930  2.1794e-04  5.8871e-09  1.1804e-08  0:07:56 1070
   931  2.1746e-04  5.8732e-09  1.1776e-08  0:09:55 1069
   932  2.1698e-04  5.8593e-09  1.1748e-08  0:07:55 1068
   933  2.1651e-04  5.8456e-09  1.1721e-08  0:09:53 1067
   934  2.1604e-04  5.8319e-09  1.1693e-08  0:07:54 1066
   935  2.1556e-04  5.8182e-09  1.1665e-08  0:09:52 1065

  iter  continuity  x-velocity  y-velocity     time/iter
   936  2.1510e-04  5.8047e-09  1.1638e-08  0:07:53 1064
   937  2.1463e-04  5.7913e-09  1.1611e-08  0:09:51 1063
   938  2.1417e-04  5.7779e-09  1.1584e-08  0:07:52 1062
   939  2.1371e-04  5.7646e-09  1.1557e-08  0:09:50 1061
   940  2.1325e-04  5.7514e-09  1.1531e-08  0:07:51 1060
   941  2.1280e-04  5.7382e-09  1.1504e-08  0:09:48 1059
   942  2.1235e-04  5.7251e-09  1.1478e-08  0:07:50 1058
   943  2.1190e-04  5.7121e-09  1.1452e-08  0:09:47 1057
   944  2.1145e-04  5.6992e-09  1.1426e-08  0:07:49 1056
   945  2.1100e-04  5.6863e-09  1.1400e-08  0:09:46 1055
   946  2.1056e-04  5.6735e-09  1.1374e-08  0:07:48 1054

  iter  continuity  x-velocity  y-velocity     time/iter
   947  2.1012e-04  5.6607e-09  1.1349e-08  0:09:45 1053
   948  2.0967e-04  5.6480e-09  1.1323e-08  0:07:48 1052
   949  2.0923e-04  5.6354e-09  1.1298e-08  0:09:44 1051
   950  2.0880e-04  5.6228e-09  1.1272e-08  0:07:47 1050
   951  2.0836e-04  5.6103e-09  1.1247e-08  0:09:43 1049
   952  2.0793e-04  5.5979e-09  1.1222e-08  0:07:46 1048
   953  2.0749e-04  5.5855e-09  1.1198e-08  0:09:42 1047
   954  2.0706e-04  5.5732e-09  1.1173e-08  0:07:45 1046
   955  2.0663e-04  5.5610e-09  1.1148e-08  0:09:41 1045
   956  2.0621e-04  5.5488e-09  1.1124e-08  0:07:44 1044
   957  2.0578e-04  5.5366e-09  1.1099e-08  0:09:39 1043

  iter  continuity  x-velocity  y-velocity     time/iter
   958  2.0536e-04  5.5246e-09  1.1075e-08  0:07:43 1042
   959  2.0493e-04  5.5126e-09  1.1051e-08  0:09:38 1041
   960  2.0451e-04  5.5006e-09  1.1027e-08  0:07:42 1040
   961  2.0409e-04  5.4887e-09  1.1003e-08  0:09:37 1039
   962  2.0368e-04  5.4768e-09  1.0979e-08  0:07:41 1038
   963  2.0326e-04  5.4650e-09  1.0955e-08  0:09:36 1037
   964  2.0284e-04  5.4533e-09  1.0931e-08  0:07:40 1036
   965  2.0243e-04  5.4416e-09  1.0908e-08  0:09:35 1035
   966  2.0202e-04  5.4299e-09  1.0884e-08  0:07:40 1034
   967  2.0161e-04  5.4183e-09  1.0861e-08  0:09:34 1033
   968  2.0120e-04  5.4067e-09  1.0838e-08  0:07:39 1032

  iter  continuity  x-velocity  y-velocity     time/iter
   969  2.0079e-04  5.3952e-09  1.0814e-08  0:09:33 1031
   970  2.0038e-04  5.3837e-09  1.0791e-08  0:07:38 1030
   971  1.9997e-04  5.3722e-09  1.0768e-08  0:09:32 1029
   972  1.9957e-04  5.3607e-09  1.0745e-08  0:07:37 1028
   973  1.9916e-04  5.3493e-09  1.0722e-08  0:09:31 1027
   974  1.9876e-04  5.3379e-09  1.0699e-08  0:07:36 1026
   975  1.9836e-04  5.3266e-09  1.0677e-08  0:09:29 1025
   976  1.9796e-04  5.3153e-09  1.0654e-08  0:07:35 1024
   977  1.9756e-04  5.3041e-09  1.0631e-08  0:09:28 1023
   978  1.9716e-04  5.2929e-09  1.0609e-08  0:07:34 1022
   979  1.9677e-04  5.2818e-09  1.0586e-08  0:09:27 1021

  iter  continuity  x-velocity  y-velocity     time/iter
   980  1.9637e-04  5.2707e-09  1.0564e-08  0:07:33 1020
   981  1.9598e-04  5.2597e-09  1.0542e-08  0:09:26 1019
   982  1.9559e-04  5.2487e-09  1.0519e-08  0:07:32 1018
   983  1.9520e-04  5.2377e-09  1.0497e-08  0:09:25 1017
   984  1.9481e-04  5.2268e-09  1.0475e-08  0:07:32 1016
   985  1.9442e-04  5.2158e-09  1.0453e-08  0:09:24 1015
   986  1.9403e-04  5.2050e-09  1.0431e-08  0:07:31 1014
   987  1.9364e-04  5.1941e-09  1.0409e-08  0:09:23 1013
   988  1.9326e-04  5.1833e-09  1.0388e-08  0:07:30 1012
   989  1.9286e-04  5.1726e-09  1.0365e-08  0:09:22 1011
   990  1.9246e-04  5.1618e-09  1.0343e-08  0:07:29 1010

  iter  continuity  x-velocity  y-velocity     time/iter
   991  1.9206e-04  5.1510e-09  1.0321e-08  0:09:21 1009
   992  1.9166e-04  5.1402e-09  1.0299e-08  0:07:28 1008
   993  1.9126e-04  5.1294e-09  1.0277e-08  0:09:19 1007
   994  1.9087e-04  5.1186e-09  1.0255e-08  0:07:27 1006
   995  1.9048e-04  5.1078e-09  1.0234e-08  0:09:18 1005
   996  1.9009e-04  5.0984e-09  1.0212e-08  0:07:26 1004
   997  1.8971e-04  5.0882e-09  1.0190e-08  0:09:17 1003
   998  1.8932e-04  5.0778e-09  1.0169e-08  0:07:25 1002
   999  1.8893e-04  5.0673e-09  1.0147e-08  0:09:16 1001
  1000  1.8855e-04  5.0568e-09  1.0126e-08  0:07:24 1000
  1001  1.8816e-04  5.0463e-09  1.0105e-08  0:09:15  999

  iter  continuity  x-velocity  y-velocity     time/iter
  1002  1.8778e-04  5.0357e-09  1.0084e-08  0:07:24  998
  1003  1.8740e-04  5.0252e-09  1.0063e-08  0:09:14  997
  1004  1.8702e-04  5.0147e-09  1.0043e-08  0:10:42  996
  1005  1.8664e-04  5.0042e-09  1.0022e-08  0:08:33  995
  1006  1.8626e-04  4.9937e-09  1.0001e-08  0:10:09  994
  1007  1.8588e-04  4.9832e-09  9.9799e-09  0:08:07  993
  1008  1.8550e-04  4.9727e-09  9.9591e-09  0:09:47  992
  1009  1.8512e-04  4.9622e-09  9.9383e-09  0:07:49  991
  1010  1.8474e-04  4.9517e-09  9.9176e-09  0:09:33  990
  1011  1.8436e-04  4.9413e-09  9.8970e-09  0:07:38  989
  1012  1.8399e-04  4.9309e-09  9.8764e-09  0:06:06  988

  iter  continuity  x-velocity  y-velocity     time/iter
  1013  1.8361e-04  4.9205e-09  9.8558e-09  0:08:10  987
  1014  1.8324e-04  4.9103e-09  9.8353e-09  0:06:32  986
  1015  1.8287e-04  4.9000e-09  9.8148e-09  0:08:30  985
  1016  1.8250e-04  4.8898e-09  9.7945e-09  0:06:48  984
  1017  1.8213e-04  4.8797e-09  9.7742e-09  0:08:42  983
  1018  1.8177e-04  4.8697e-09  9.7542e-09  0:06:57  982
  1019  1.8140e-04  4.8596e-09  9.7342e-09  0:08:50  981
  1020  1.8105e-04  4.8497e-09  9.7144e-09  0:07:03  980
  1021  1.8069e-04  4.8398e-09  9.6946e-09  0:08:54  979
  1022  1.8034e-04  4.8300e-09  9.6750e-09  0:07:07  978
  1023  1.7999e-04  4.8204e-09  9.6556e-09  0:08:57  977

  iter  continuity  x-velocity  y-velocity     time/iter
  1024  1.7964e-04  4.8109e-09  9.6363e-09  0:07:09  976
  1025  1.7930e-04  4.8015e-09  9.6171e-09  0:08:58  975
  1026  1.7896e-04  4.7922e-09  9.5980e-09  0:07:10  974
  1027  1.7863e-04  4.7829e-09  9.5791e-09  0:08:58  973
  1028  1.7830e-04  4.7737e-09  9.5604e-09  0:07:10  972
  1029  1.7797e-04  4.7646e-09  9.5418e-09  0:08:58  971
  1030  1.7765e-04  4.7555e-09  9.5234e-09  0:07:10  970
  1031  1.7734e-04  4.7465e-09  9.5051e-09  0:08:57  969
  1032  1.7702e-04  4.7376e-09  9.4870e-09  0:07:09  968
  1033  1.7672e-04  4.7288e-09  9.4691e-09  0:08:57  967
  1034  1.7641e-04  4.7201e-09  9.4514e-09  0:07:09  966

  iter  continuity  x-velocity  y-velocity     time/iter
  1035  1.7611e-04  4.7115e-09  9.4339e-09  0:08:56  965
  1036  1.7582e-04  4.7030e-09  9.4167e-09  0:07:08  964
  1037  1.7554e-04  4.6946e-09  9.3998e-09  0:08:55  963
  1038  1.7526e-04  4.6863e-09  9.3832e-09  0:07:07  962
  1039  1.7498e-04  4.6782e-09  9.3668e-09  0:08:54  961
  1040  1.7472e-04  4.6703e-09  9.3508e-09  0:07:07  960
  1041  1.7446e-04  4.6626e-09  9.3353e-09  0:08:53  959
  1042  1.7422e-04  4.6550e-09  9.3201e-09  0:07:06  958
  1043  1.7398e-04  4.6476e-09  9.3054e-09  0:08:52  957
  1044  1.7376e-04  4.6404e-09  9.2912e-09  0:07:05  956
  1045  1.7354e-04  4.6334e-09  9.2775e-09  0:08:51  955

  iter  continuity  x-velocity  y-velocity     time/iter
  1046  1.7334e-04  4.6266e-09  9.2644e-09  0:07:04  954
  1047  1.7315e-04  4.6201e-09  9.2517e-09  0:08:49  953
  1048  1.7297e-04  4.6137e-09  9.2396e-09  0:07:03  952
  1049  1.7281e-04  4.6077e-09  9.2280e-09  0:08:48  951
  1050  1.7265e-04  4.6019e-09  9.2170e-09  0:07:02  950
  1051  1.7250e-04  4.5963e-09  9.2064e-09  0:08:47  949
  1052  1.7236e-04  4.5910e-09  9.1961e-09  0:10:11  948
  1053  1.7223e-04  4.5858e-09  9.1862e-09  0:08:08  947
  1054  1.7209e-04  4.5808e-09  9.1764e-09  0:09:39  946
  1055  1.7196e-04  4.5757e-09  9.1664e-09  0:07:43  945
  1056  1.7181e-04  4.5706e-09  9.1561e-09  0:09:19  944

  iter  continuity  x-velocity  y-velocity     time/iter
  1057  1.7164e-04  4.5654e-09  9.1452e-09  0:07:27  943
  1058  1.7144e-04  4.5598e-09  9.1334e-09  0:09:05  942
  1059  1.7121e-04  4.5538e-09  9.1204e-09  0:07:16  941
  1060  1.7094e-04  4.5472e-09  9.1059e-09  0:08:56  940
  1061  1.7062e-04  4.5400e-09  9.0898e-09  0:07:09  939
  1062  1.7027e-04  4.5320e-09  9.0720e-09  0:05:42  938
  1063  1.6986e-04  4.5233e-09  9.0527e-09  0:07:41  937
  1064  1.6942e-04  4.5138e-09  9.0317e-09  0:06:08  936
  1065  1.6895e-04  4.5035e-09  9.0094e-09  0:08:01  935
  1066  1.6844e-04  4.4926e-09  8.9858e-09  0:06:25  934
  1067  1.6792e-04  4.4810e-09  8.9612e-09  0:08:14  933

  iter  continuity  x-velocity  y-velocity     time/iter
  1068  1.6739e-04  4.4689e-09  8.9359e-09  0:09:41  932
  1069  1.6688e-04  4.4569e-09  8.9105e-09  0:07:44  931
  1070  1.6639e-04  4.4459e-09  8.8855e-09  0:09:17  930
  1071  1.6591e-04  4.4351e-09  8.8618e-09  0:07:25  929
  1072  1.6543e-04  4.4242e-09  8.8383e-09  0:09:01  928
  1073  1.6496e-04  4.4131e-09  8.8147e-09  0:07:13  927
  1074  1.6451e-04  4.4021e-09  8.7911e-09  0:08:51  926
  1075  1.6407e-04  4.3911e-09  8.7677e-09  0:07:04  925
  1076  1.6364e-04  4.3801e-09  8.7451e-09  0:08:44  924
  1077  1.6322e-04  4.3693e-09  8.7232e-09  0:06:59  923
  1078  1.6281e-04  4.3585e-09  8.7013e-09  0:08:39  922

  iter  continuity  x-velocity  y-velocity     time/iter
  1079  1.6241e-04  4.3477e-09  8.6795e-09  0:06:55  921
  1080  1.6201e-04  4.3370e-09  8.6580e-09  0:08:35  920
  1081  1.6162e-04  4.3265e-09  8.6368e-09  0:06:52  919
  1082  1.6124e-04  4.3160e-09  8.6158e-09  0:08:33  918
  1083  1.6086e-04  4.3058e-09  8.5949e-09  0:06:50  917
  1084  1.6049e-04  4.2956e-09  8.5742e-09  0:08:31  916
  1085  1.6013e-04  4.2855e-09  8.5538e-09  0:06:48  915
  1086  1.5977e-04  4.2755e-09  8.5336e-09  0:08:29  914
  1087  1.5942e-04  4.2656e-09  8.5136e-09  0:06:47  913
  1088  1.5908e-04  4.2557e-09  8.4940e-09  0:08:27  912
  1089  1.5875e-04  4.2460e-09  8.4745e-09  0:06:45  911

  iter  continuity  x-velocity  y-velocity     time/iter
  1090  1.5842e-04  4.2364e-09  8.4554e-09  0:05:24  910
  1091  1.5809e-04  4.2268e-09  8.4364e-09  0:07:21  909
  1092  1.5777e-04  4.2174e-09  8.4177e-09  0:05:52  908
  1093  1.5745e-04  4.2081e-09  8.3991e-09  0:07:43  907
  1094  1.5713e-04  4.1989e-09  8.3807e-09  0:06:10  906
  1095  1.5681e-04  4.1898e-09  8.3625e-09  0:07:57  905
  1096  1.5650e-04  4.1807e-09  8.3445e-09  0:06:21  904
  1097  1.5618e-04  4.1718e-09  8.3267e-09  0:08:05  903
  1098  1.5587e-04  4.1630e-09  8.3090e-09  0:06:28  902
  1099  1.5557e-04  4.1542e-09  8.2914e-09  0:08:10  901
  1100  1.5527e-04  4.1454e-09  8.2739e-09  0:09:31  900

  iter  continuity  x-velocity  y-velocity     time/iter
  1101  1.5497e-04  4.1368e-09  8.2566e-09  0:07:37  899
  1102  1.5467e-04  4.1282e-09  8.2394e-09  0:09:05  898
  1103  1.5437e-04  4.1197e-09  8.2224e-09  0:07:15  897
  1104  1.5407e-04  4.1113e-09  8.2054e-09  0:08:47  896
  1105  1.5378e-04  4.1030e-09  8.1885e-09  0:07:01  895
  1106  1.5348e-04  4.0948e-09  8.1718e-09  0:08:35  894
  1107  1.5319e-04  4.0866e-09  8.1551e-09  0:06:52  893
  1108  1.5289e-04  4.0785e-09  8.1385e-09  0:08:27  892
  1109  1.5260e-04  4.0704e-09  8.1221e-09  0:06:45  891
  1110  1.5231e-04  4.0624e-09  8.1057e-09  0:08:22  890
  1111  1.5202e-04  4.0544e-09  8.0894e-09  0:06:41  889

  iter  continuity  x-velocity  y-velocity     time/iter
  1112  1.5173e-04  4.0464e-09  8.0732e-09  0:08:18  888
  1113  1.5144e-04  4.0385e-09  8.0570e-09  0:06:38  887
  1114  1.5116e-04  4.0306e-09  8.0410e-09  0:08:15  886
  1115  1.5087e-04  4.0228e-09  8.0251e-09  0:06:36  885
  1116  1.5059e-04  4.0150e-09  8.0092e-09  0:08:13  884
  1117  1.5030e-04  4.0073e-09  7.9934e-09  0:06:34  883
  1118  1.5002e-04  3.9995e-09  7.9776e-09  0:08:11  882
  1119  1.4974e-04  3.9918e-09  7.9618e-09  0:06:33  881
  1120  1.4945e-04  3.9841e-09  7.9461e-09  0:08:10  880
  1121  1.4917e-04  3.9765e-09  7.9304e-09  0:06:31  879
  1122  1.4889e-04  3.9689e-09  7.9147e-09  0:08:08  878

  iter  continuity  x-velocity  y-velocity     time/iter
  1123  1.4861e-04  3.9613e-09  7.8990e-09  0:06:30  877
  1124  1.4833e-04  3.9536e-09  7.8834e-09  0:05:12  876
  1125  1.4805e-04  3.9460e-09  7.8677e-09  0:07:04  875
  1126  1.4777e-04  3.9385e-09  7.8521e-09  0:05:39  874
  1127  1.4749e-04  3.9311e-09  7.8376e-09  0:07:25  873
  1128  1.4723e-04  3.9250e-09  7.8225e-09  0:05:56  872
  1129  1.4696e-04  3.9188e-09  7.8069e-09  0:07:39  871
  1130  1.4669e-04  3.9124e-09  7.7913e-09  0:06:06  870
  1131  1.4642e-04  3.9056e-09  7.7757e-09  0:07:47  869
  1132  1.4615e-04  3.8985e-09  7.7602e-09  0:06:13  868
  1133  1.4587e-04  3.8911e-09  7.7448e-09  0:07:51  867

  iter  continuity  x-velocity  y-velocity     time/iter
  1134  1.4560e-04  3.8835e-09  7.7295e-09  0:06:17  866
  1135  1.4533e-04  3.8757e-09  7.7143e-09  0:07:54  865
  1136  1.4506e-04  3.8679e-09  7.6993e-09  0:06:19  864
  1137  1.4479e-04  3.8601e-09  7.6843e-09  0:07:55  863
  1138  1.4452e-04  3.8523e-09  7.6694e-09  0:06:20  862
  1139  1.4426e-04  3.8445e-09  7.6546e-09  0:07:56  861
  1140  1.4399e-04  3.8368e-09  7.6398e-09  0:06:20  860
  1141  1.4372e-04  3.8293e-09  7.6251e-09  0:07:56  859
  1142  1.4346e-04  3.8218e-09  7.6104e-09  0:06:20  858
  1143  1.4320e-04  3.8144e-09  7.5958e-09  0:07:55  857
  1144  1.4294e-04  3.8071e-09  7.5812e-09  0:06:20  856

  iter  continuity  x-velocity  y-velocity     time/iter
  1145  1.4268e-04  3.7999e-09  7.5667e-09  0:07:54  855
  1146  1.4242e-04  3.7928e-09  7.5522e-09  0:06:19  854
  1147  1.4216e-04  3.7857e-09  7.5378e-09  0:07:53  853
  1148  1.4190e-04  3.7786e-09  7.5234e-09  0:09:09  852
  1149  1.4164e-04  3.7716e-09  7.5091e-09  0:07:18  851
  1150  1.4139e-04  3.7646e-09  7.4948e-09  0:08:40  850
  1151  1.4113e-04  3.7576e-09  7.4806e-09  0:06:56  849
  1152  1.4088e-04  3.7506e-09  7.4665e-09  0:08:22  848
  1153  1.4062e-04  3.7437e-09  7.4524e-09  0:06:41  847
  1154  1.4037e-04  3.7368e-09  7.4383e-09  0:05:20  846
  1155  1.4012e-04  3.7299e-09  7.4242e-09  0:07:05  845

  iter  continuity  x-velocity  y-velocity     time/iter
  1156  1.3987e-04  3.7230e-09  7.4102e-09  0:05:40  844
  1157  1.3962e-04  3.7162e-09  7.3962e-09  0:07:20  843
  1158  1.3937e-04  3.7093e-09  7.3823e-09  0:05:52  842
  1159  1.3912e-04  3.7025e-09  7.3684e-09  0:07:29  841
  1160  1.3888e-04  3.6957e-09  7.3545e-09  0:05:59  840
  1161  1.3863e-04  3.6889e-09  7.3407e-09  0:07:35  839
  1162  1.3838e-04  3.6822e-09  7.3270e-09  0:06:03  838
  1163  1.3814e-04  3.6755e-09  7.3132e-09  0:07:38  837
  1164  1.3789e-04  3.6688e-09  7.2995e-09  0:06:06  836
  1165  1.3765e-04  3.6621e-09  7.2858e-09  0:07:39  835
  1166  1.3740e-04  3.6554e-09  7.2722e-09  0:06:07  834

  iter  continuity  x-velocity  y-velocity     time/iter
  1167  1.3716e-04  3.6488e-09  7.2586e-09  0:07:40  833
  1168  1.3692e-04  3.6422e-09  7.2451e-09  0:06:07  832
  1169  1.3667e-04  3.6356e-09  7.2316e-09  0:07:40  831
  1170  1.3643e-04  3.6290e-09  7.2181e-09  0:06:07  830
  1171  1.3619e-04  3.6224e-09  7.2047e-09  0:07:39  829
  1172  1.3595e-04  3.6158e-09  7.1913e-09  0:06:07  828
  1173  1.3571e-04  3.6092e-09  7.1779e-09  0:07:39  827
  1174  1.3547e-04  3.6027e-09  7.1645e-09  0:06:06  826
  1175  1.3523e-04  3.5962e-09  7.1512e-09  0:07:38  825
  1176  1.3500e-04  3.5896e-09  7.1380e-09  0:06:06  824
  1177  1.3476e-04  3.5831e-09  7.1247e-09  0:07:37  823

  iter  continuity  x-velocity  y-velocity     time/iter
  1178  1.3453e-04  3.5767e-09  7.1116e-09  0:06:05  822
[...]
  1781  5.1974e-05  1.3489e-09  2.6035e-09  0:01:23  219
  1782  5.1880e-05  1.3466e-09  2.5985e-09  0:01:50  218

  iter  continuity  x-velocity  y-velocity     time/iter
  1783  5.1787e-05  1.3442e-09  2.5937e-09  0:01:27  217
  1784  5.1695e-05  1.3418e-09  2.5891e-09  0:01:53  216
  1785  5.1605e-05  1.3395e-09  2.5846e-09  0:01:30  215
  1786  5.1517e-05  1.3372e-09  2.5800e-09  0:01:54  214
  1787  5.1430e-05  1.3349e-09  2.5757e-09  0:01:31  213
  1788  5.1344e-05  1.3326e-09  2.5713e-09  0:01:12  212
  1789  5.1259e-05  1.3303e-09  2.5669e-09  0:01:40  211
  1790  5.1173e-05  1.3280e-09  2.5625e-09  0:01:20  210
  1791  5.1088e-05  1.3257e-09  2.5583e-09  0:01:45  209
  1792  5.1005e-05  1.3234e-09  2.5540e-09  0:01:24  208
  1793  5.0923e-05  1.3211e-09  2.5498e-09  0:01:48  207

  iter  continuity  x-velocity  y-velocity     time/iter
  1794  5.0843e-05  1.3189e-09  2.5456e-09  0:01:26  206
  1795  5.0764e-05  1.3166e-09  2.5415e-09  0:01:49  205
  1796  5.0686e-05  1.3144e-09  2.5374e-09  0:01:27  204
  1797  5.0609e-05  1.3122e-09  2.5333e-09  0:01:50  203
  1798  5.0534e-05  1.3101e-09  2.5293e-09  0:01:28  202
  1799  5.0459e-05  1.3079e-09  2.5253e-09  0:01:10  201
  1800  5.0386e-05  1.3058e-09  2.5213e-09  0:01:35  200
  1801  5.0313e-05  1.3037e-09  2.5174e-09  0:01:16  199
  1802  5.0241e-05  1.3016e-09  2.5134e-09  0:01:40  198
  1803  5.0169e-05  1.2996e-09  2.5095e-09  0:01:20  197
  1804  5.0098e-05  1.2975e-09  2.5056e-09  0:01:43  196

  iter  continuity  x-velocity  y-velocity     time/iter
  1805  5.0028e-05  1.2955e-09  2.5018e-09  0:01:22  195
  1806  4.9959e-05  1.2935e-09  2.4979e-09  0:01:44  194
  1807  4.9890e-05  1.2915e-09  2.4941e-09  0:01:23  193
  1808  4.9822e-05  1.2895e-09  2.4903e-09  0:01:44  192
  1809  4.9755e-05  1.2876e-09  2.4865e-09  0:01:23  191
  1810  4.9688e-05  1.2856e-09  2.4827e-09  0:01:44  190
  1811  4.9621e-05  1.2837e-09  2.4789e-09  0:01:23  189
  1812  4.9555e-05  1.2818e-09  2.4752e-09  0:01:43  188
  1813  4.9490e-05  1.2799e-09  2.4714e-09  0:01:22  187
  1814  4.9425e-05  1.2780e-09  2.4677e-09  0:01:43  186
  1815  4.9361e-05  1.2762e-09  2.4640e-09  0:01:22  185

  iter  continuity  x-velocity  y-velocity     time/iter
  1816  4.9297e-05  1.2743e-09  2.4603e-09  0:01:05  184
  1817  4.9233e-05  1.2724e-09  2.4567e-09  0:01:28  183
  1818  4.9166e-05  1.2706e-09  2.4529e-09  0:01:10  182
  1819  4.9098e-05  1.2687e-09  2.4491e-09  0:01:32  181
  1820  4.9029e-05  1.2668e-09  2.4452e-09  0:01:13  180
  1821  4.8960e-05  1.2649e-09  2.4414e-09  0:01:34  179
  1822  4.8892e-05  1.2629e-09  2.4375e-09  0:01:15  178
  1823  4.8823e-05  1.2610e-09  2.4337e-09  0:01:35  177
  1824  4.8755e-05  1.2591e-09  2.4299e-09  0:01:16  176
  1825  4.8688e-05  1.2572e-09  2.4261e-09  0:01:00  175
  1826  4.8621e-05  1.2553e-09  2.4223e-09  0:01:23  174

  iter  continuity  x-velocity  y-velocity     time/iter
  1827  4.8554e-05  1.2534e-09  2.4186e-09  0:01:06  173
  1828  4.8487e-05  1.2515e-09  2.4148e-09  0:01:27  172
  1829  4.8421e-05  1.2496e-09  2.4111e-09  0:01:09  171
  1830  4.8355e-05  1.2477e-09  2.4074e-09  0:01:29  170
  1831  4.8289e-05  1.2459e-09  2.4037e-09  0:01:11  169
  1832  4.8221e-05  1.2440e-09  2.4000e-09  0:01:30  168
  1833  4.8150e-05  1.2421e-09  2.3961e-09  0:01:11  167
  1834  4.8078e-05  1.2403e-09  2.3921e-09  0:01:30  166
  1835  4.8005e-05  1.2384e-09  2.3882e-09  0:01:12  165
  1836  4.7932e-05  1.2365e-09  2.3842e-09  0:01:30  164
  1837  4.7860e-05  1.2346e-09  2.3803e-09  0:01:11  163

  iter  continuity  x-velocity  y-velocity     time/iter
  1838  4.7788e-05  1.2327e-09  2.3764e-09  0:00:57  162
  1839  4.7717e-05  1.2309e-09  2.3725e-09  0:01:17  161
  1840  4.7646e-05  1.2291e-09  2.3686e-09  0:01:01  160
  1841  4.7576e-05  1.2273e-09  2.3648e-09  0:01:21  159
  1842  4.7506e-05  1.2256e-09  2.3610e-09  0:01:04  158
  1843  4.7437e-05  1.2238e-09  2.3573e-09  0:01:22  157
  1844  4.7368e-05  1.2221e-09  2.3535e-09  0:01:05  156
  1845  4.7300e-05  1.2204e-09  2.3498e-09  0:01:23  155
  1846  4.7232e-05  1.2187e-09  2.3462e-09  0:01:06  154
  1847  4.7165e-05  1.2169e-09  2.3425e-09  0:01:23  153
  1848  4.7099e-05  1.2153e-09  2.3388e-09  0:01:06  152

  iter  continuity  x-velocity  y-velocity     time/iter
  1849  4.7033e-05  1.2136e-09  2.3352e-09  0:00:52  151
  1850  4.6967e-05  1.2120e-09  2.3316e-09  0:01:12  150
  1851  4.6902e-05  1.2103e-09  2.3279e-09  0:00:57  149
  1852  4.6836e-05  1.2087e-09  2.3243e-09  0:01:15  148
  1853  4.6771e-05  1.2071e-09  2.3207e-09  0:00:59  147
  1854  4.6706e-05  1.2055e-09  2.3172e-09  0:01:16  146
  1855  4.6642e-05  1.2038e-09  2.3136e-09  0:01:01  145
  1856  4.6577e-05  1.2022e-09  2.3101e-09  0:01:17  144
  1857  4.6514e-05  1.2006e-09  2.3066e-09  0:01:01  143
  1858  4.6450e-05  1.1989e-09  2.3031e-09  0:01:17  142
  1859  4.6388e-05  1.1973e-09  2.2996e-09  0:01:01  141

  iter  continuity  x-velocity  y-velocity     time/iter
  1860  4.6325e-05  1.1956e-09  2.2962e-09  0:01:17  140
  1861  4.6263e-05  1.1940e-09  2.2927e-09  0:01:01  139
  1862  4.6202e-05  1.1923e-09  2.2893e-09  0:01:16  138
  1863  4.6140e-05  1.1907e-09  2.2858e-09  0:01:00  137
  1864  4.6079e-05  1.1890e-09  2.2824e-09  0:00:48  136
  1865  4.6018e-05  1.1874e-09  2.2790e-09  0:01:05  135
  1866  4.5958e-05  1.1857e-09  2.2756e-09  0:00:52  134
  1867  4.5898e-05  1.1841e-09  2.2722e-09  0:01:08  133
  1868  4.5838e-05  1.1825e-09  2.2688e-09  0:00:54  132
  1869  4.5778e-05  1.1808e-09  2.2654e-09  0:01:09  131
  1870  4.5718e-05  1.1792e-09  2.2621e-09  0:00:55  130

  iter  continuity  x-velocity  y-velocity     time/iter
  1871  4.5659e-05  1.1776e-09  2.2587e-09  0:01:09  129
  1872  4.5600e-05  1.1759e-09  2.2554e-09  0:00:55  128
  1873  4.5541e-05  1.1743e-09  2.2521e-09  0:00:44  127
  1874  4.5482e-05  1.1727e-09  2.2487e-09  0:01:00  126
  1875  4.5423e-05  1.1711e-09  2.2454e-09  0:00:47  125
  1876  4.5365e-05  1.1695e-09  2.2421e-09  0:01:02  124
  1877  4.5306e-05  1.1679e-09  2.2388e-09  0:00:50  123
  1878  4.5248e-05  1.1663e-09  2.2355e-09  0:01:04  122
  1879  4.5190e-05  1.1647e-09  2.2322e-09  0:00:51  121
  1880  4.5132e-05  1.1631e-09  2.2290e-09  0:01:04  120
  1881  4.5075e-05  1.1615e-09  2.2257e-09  0:00:51  119

  iter  continuity  x-velocity  y-velocity     time/iter
  1882  4.5017e-05  1.1599e-09  2.2224e-09  0:01:04  118
  1883  4.4960e-05  1.1584e-09  2.2192e-09  0:00:51  117
  1884  4.4902e-05  1.1568e-09  2.2159e-09  0:00:40  116
  1885  4.4845e-05  1.1552e-09  2.2127e-09  0:00:55  115
  1886  4.4788e-05  1.1537e-09  2.2095e-09  0:00:44  114
  1887  4.4731e-05  1.1521e-09  2.2063e-09  0:00:57  113
  1888  4.4674e-05  1.1505e-09  2.2030e-09  0:00:45  112
  1889  4.4617e-05  1.1490e-09  2.1998e-09  0:00:58  111
  1890  4.4561e-05  1.1474e-09  2.1966e-09  0:00:46  110
  1891  4.4504e-05  1.1459e-09  2.1934e-09  0:00:58  109
  1892  4.4447e-05  1.1443e-09  2.1902e-09  0:00:46  108

  iter  continuity  x-velocity  y-velocity     time/iter
  1893  4.4391e-05  1.1428e-09  2.1871e-09  0:00:58  107
  1894  4.4334e-05  1.1412e-09  2.1839e-09  0:00:46  106
  1895  4.4278e-05  1.1397e-09  2.1807e-09  0:00:36  105
  1896  4.4222e-05  1.1382e-09  2.1775e-09  0:00:50  104
  1897  4.4166e-05  1.1366e-09  2.1744e-09  0:00:39  103
  1898  4.4110e-05  1.1351e-09  2.1712e-09  0:00:52  102
  1899  4.4054e-05  1.1336e-09  2.1681e-09  0:00:41  101
  1900  4.3999e-05  1.1320e-09  2.1650e-09  0:00:52  100
  1901  4.3943e-05  1.1305e-09  2.1618e-09  0:00:41   99
  1902  4.3888e-05  1.1290e-09  2.1587e-09  0:00:52   98
  1903  4.3832e-05  1.1275e-09  2.1556e-09  0:00:42   97

  iter  continuity  x-velocity  y-velocity     time/iter
  1904  4.3777e-05  1.1260e-09  2.1525e-09  0:00:52   96
  1905  4.3722e-05  1.1245e-09  2.1494e-09  0:00:41   95
  1906  4.3668e-05  1.1230e-09  2.1463e-09  0:00:51   94
  1907  4.3613e-05  1.1215e-09  2.1432e-09  0:00:41   93
  1908  4.3558e-05  1.1200e-09  2.1401e-09  0:00:51   92
  1909  4.3503e-05  1.1185e-09  2.1371e-09  0:00:40   91
  1910  4.3449e-05  1.1170e-09  2.1340e-09  0:00:50   90
  1911  4.3394e-05  1.1155e-09  2.1309e-09  0:00:39   89
  1912  4.3340e-05  1.1140e-09  2.1279e-09  0:00:49   88
  1913  4.3286e-05  1.1125e-09  2.1248e-09  0:00:39   87
  1914  4.3231e-05  1.1110e-09  2.1218e-09  0:00:30   86

  iter  continuity  x-velocity  y-velocity     time/iter
  1915  4.3177e-05  1.1095e-09  2.1187e-09  0:00:41   85
  1916  4.3124e-05  1.1080e-09  2.1157e-09  0:00:32   84
  1917  4.3070e-05  1.1065e-09  2.1127e-09  0:00:42   83
  1918  4.3016e-05  1.1051e-09  2.1097e-09  0:00:33   82
  1919  4.2963e-05  1.1036e-09  2.1068e-09  0:00:43   81
  1920  4.2909e-05  1.1021e-09  2.1038e-09  0:00:34   80
  1921  4.2856e-05  1.1007e-09  2.1008e-09  0:00:42   79
  1922  4.2803e-05  1.0992e-09  2.0978e-09  0:00:33   78
  1923  4.2750e-05  1.0978e-09  2.0949e-09  0:00:42   77
  1924  4.2697e-05  1.0963e-09  2.0919e-09  0:00:33   76
  1925  4.2645e-05  1.0949e-09  2.0890e-09  0:00:26   75

  iter  continuity  x-velocity  y-velocity     time/iter
  1926  4.2592e-05  1.0934e-09  2.0861e-09  0:00:35   74
  1927  4.2540e-05  1.0920e-09  2.0832e-09  0:00:28   73
  1928  4.2486e-05  1.0905e-09  2.0802e-09  0:00:36   72
  1929  4.2428e-05  1.0891e-09  2.0769e-09  0:00:29   71
  1930  4.2366e-05  1.0876e-09  2.0736e-09  0:00:37   70
  1931  4.2301e-05  1.0861e-09  2.0702e-09  0:00:29   69
  1932  4.2235e-05  1.0845e-09  2.0672e-09  0:00:36   68
  1933  4.2168e-05  1.0829e-09  2.0641e-09  0:00:29   67
  1934  4.2101e-05  1.0813e-09  2.0609e-09  0:00:36   66
  1935  4.2034e-05  1.0796e-09  2.0577e-09  0:00:28   65
  1936  4.1967e-05  1.0780e-09  2.0545e-09  0:00:35   64

  iter  continuity  x-velocity  y-velocity     time/iter
  1937  4.1900e-05  1.0763e-09  2.0513e-09  0:00:28   63
  1938  4.1834e-05  1.0747e-09  2.0481e-09  0:00:22   62
  1939  4.1769e-05  1.0730e-09  2.0448e-09  0:00:29   61
  1940  4.1704e-05  1.0714e-09  2.0416e-09  0:00:23   60
  1941  4.1639e-05  1.0698e-09  2.0384e-09  0:00:30   59
  1942  4.1575e-05  1.0681e-09  2.0352e-09  0:00:24   58
  1943  4.1511e-05  1.0665e-09  2.0320e-09  0:00:30   57
  1944  4.1447e-05  1.0649e-09  2.0288e-09  0:00:24   56
  1945  4.1384e-05  1.0633e-09  2.0256e-09  0:00:29   55
  1946  4.1321e-05  1.0617e-09  2.0224e-09  0:00:23   54
  1947  4.1258e-05  1.0601e-09  2.0193e-09  0:00:18   53

  iter  continuity  x-velocity  y-velocity     time/iter
  1948  4.1196e-05  1.0585e-09  2.0162e-09  0:00:25   52
  1949  4.1133e-05  1.0569e-09  2.0130e-09  0:00:19   51
  1950  4.1071e-05  1.0553e-09  2.0100e-09  0:00:25   50
  1951  4.1010e-05  1.0537e-09  2.0069e-09  0:00:30   49
  1952  4.0948e-05  1.0521e-09  2.0038e-09  0:00:23   48
  1953  4.0887e-05  1.0505e-09  2.0007e-09  0:00:18   47
  1954  4.0826e-05  1.0490e-09  1.9977e-09  0:00:23   46
  1955  4.0765e-05  1.0474e-09  1.9946e-09  0:00:18   45
  1956  4.0704e-05  1.0458e-09  1.9916e-09  0:00:23   44
  1957  4.0644e-05  1.0443e-09  1.9886e-09  0:00:18   43
  1958  4.0584e-05  1.0427e-09  1.9856e-09  0:00:23   42

  iter  continuity  x-velocity  y-velocity     time/iter
  1959  4.0525e-05  1.0412e-09  1.9826e-09  0:00:18   41
  1960  4.0465e-05  1.0396e-09  1.9796e-09  0:00:22   40
  1961  4.0406e-05  1.0381e-09  1.9766e-09  0:00:17   39
  1962  4.0348e-05  1.0366e-09  1.9737e-09  0:00:21   38
  1963  4.0289e-05  1.0351e-09  1.9708e-09  0:00:16   37
  1964  4.0231e-05  1.0336e-09  1.9679e-09  0:00:20   36
  1965  4.0174e-05  1.0321e-09  1.9650e-09  0:00:15   35
  1966  4.0116e-05  1.0306e-09  1.9622e-09  0:00:12   34
  1967  4.0060e-05  1.0291e-09  1.9594e-09  0:00:16   33
  1968  4.0004e-05  1.0276e-09  1.9565e-09  0:00:12   32
  1969  3.9949e-05  1.0262e-09  1.9538e-09  0:00:16   31

  iter  continuity  x-velocity  y-velocity     time/iter
  1970  3.9894e-05  1.0247e-09  1.9510e-09  0:00:12   30
  1971  3.9839e-05  1.0233e-09  1.9483e-09  0:00:15   29
  1972  3.9786e-05  1.0219e-09  1.9456e-09  0:00:12   28
  1973  3.9732e-05  1.0205e-09  1.9429e-09  0:00:14   27
  1974  3.9679e-05  1.0191e-09  1.9402e-09  0:00:11   26
  1975  3.9627e-05  1.0177e-09  1.9376e-09  0:00:09   25
  1976  3.9575e-05  1.0163e-09  1.9349e-09  0:00:11   24
  1977  3.9523e-05  1.0150e-09  1.9323e-09  0:00:09   23
  1978  3.9472e-05  1.0136e-09  1.9297e-09  0:00:11   22
  1979  3.9421e-05  1.0123e-09  1.9271e-09  0:00:08   21
  1980  3.9371e-05  1.0110e-09  1.9246e-09  0:00:10   20

  iter  continuity  x-velocity  y-velocity     time/iter
  1981  3.9321e-05  1.0097e-09  1.9220e-09  0:00:08   19
  1982  3.9271e-05  1.0085e-09  1.9195e-09  0:00:10   18
  1983  3.9222e-05  1.0072e-09  1.9170e-09  0:00:07   17
  1984  3.9174e-05  1.0059e-09  1.9145e-09  0:00:09   16
  1985  3.9125e-05  1.0047e-09  1.9121e-09  0:00:07   15
  1986  3.9078e-05  1.0035e-09  1.9097e-09  0:00:05   14
  1987  3.9030e-05  1.0022e-09  1.9073e-09  0:00:06   13
  1988  3.8984e-05  1.0010e-09  1.9050e-09  0:00:05   12
  1989  3.8938e-05  9.9985e-10  1.9027e-09  0:00:06   11
  1990  3.8892e-05  9.9868e-10  1.9004e-09  0:00:04   10
  1991  3.8847e-05  9.9751e-10  1.8981e-09  0:00:05    9

  iter  continuity  x-velocity  y-velocity     time/iter
  1992  3.8802e-05  9.9636e-10  1.8959e-09  0:00:03    8
  1993  3.8758e-05  9.9523e-10  1.8936e-09  0:00:04    7
  1994  3.8715e-05  9.9410e-10  1.8915e-09  0:00:03    6
  1995  3.8672e-05  9.9299e-10  1.8893e-09  0:00:02    5
  1996  3.8630e-05  9.9189e-10  1.8872e-09  0:00:02    4
  1997  3.8589e-05  9.9081e-10  1.8851e-09  0:00:02    3
  1998  3.8548e-05  9.8974e-10  1.8830e-09  0:00:01    2
  1999  3.8508e-05  9.8869e-10  1.8810e-09  0:00:01    1
  2000  3.8469e-05  9.8765e-10  1.8790e-09  0:00:00    0

> 
adjoint/                parallel/               server/
define/                 parametric-study/       solve/
display/                plot/                   surface/
exit                    preferences/            views/
file/                   print-license-usage
mesh/                   report/

> ;create rakes
surface/rake-surface cv_inlet -0.005 -0.065 -0.005 0.065 1000

> surface/rake-surface cv_outlet 1.005 -0.065 1.005 0.065 1000

> surface/rake-surface cv_top -0.005 0.065 1.005 0.065 1000

> surface/rake-surface cv_bottom -0.005 -0.065 1.005 -0.065 1000

> surface/point-surface free-stream -15 0

> 
adjoint/                parallel/               server/
define/                 parametric-study/       solve/
display/                plot/                   surface/
exit                    preferences/            views/
file/                   print-license-usage
mesh/                   report/

> ;export data
file/export/ascii NP_CVinlet_data cv_inlet () no pressure x-velocity y-velocity dx-velocity-dx dx-velocity-dy dy-velocity-dx dy-velocity-dy q no 
Writing "NP_CVinlet_data"...

Writing information to ascii file ...
Done.

ok


Overwrite confirmations (/file/set-batch-options ...)
are on -- will therefore ignore the following journal
Error: invalid command: ok


> file/export/ascii NP_CVoutlet_data cv_outlet () no pressure x-velocity y-velocity dx-velocity-dx dx-velocity-dy dy-velocity-dx dy-velocity-dy q no 
Writing "NP_CVoutlet_data"...

Writing information to ascii file ...
Done.

ok


Overwrite confirmations (/file/set-batch-options ...)
are on -- will therefore ignore the following journal
Error: invalid command: ok


> file/export/ascii NP_CVtop_data cv_top () no pressure x-velocity y-velocity dx-velocity-dx dx-velocity-dy dy-velocity-dx dy-velocity-dy q no 
Writing "NP_CVtop_data"...

Writing information to ascii file ...
Done.

ok


Overwrite confirmations (/file/set-batch-options ...)
are on -- will therefore ignore the following journal
Error: invalid command: ok


> file/export/ascii NP_CVbottom_data cv_bottom () no pressure x-velocity y-velocity dx-velocity-dx dx-velocity-dy dy-velocity-dx dy-velocity-dy q no 
Writing "NP_CVbottom_data"...

Writing information to ascii file ...
Done.

ok


Overwrite confirmations (/file/set-batch-options ...)
are on -- will therefore ignore the following journal
Error: invalid command: ok


> file/export/ascii air_properties free-stream () no density viscosity-lam q no 
Writing "air_properties"...

Writing information to ascii file ...
Done.

ok


Overwrite confirmations (/file/set-batch-options ...)
are on -- will therefore ignore the following journal
Error: invalid command: ok


> 
adjoint/                parallel/               server/
define/                 parametric-study/       solve/
display/                plot/                   surface/
exit                    preferences/            views/
file/                   print-license-usage
mesh/                   report/

> ;flag file to know when simulation is over
file/export/ascii flag_file free-stream () no pressure q no 
Writing "flag_file"...

Writing information to ascii file ...
Done.

ok


Overwrite confirmations (/file/set-batch-options ...)
are on -- will therefore ignore the following journal
Error: invalid command: ok


> 
adjoint/                parallel/               server/
define/                 parametric-study/       solve/
display/                plot/                   surface/
exit                    preferences/            views/
file/                   print-license-usage
mesh/                   report/

> (cx-gui-do cx-set-list-tree-selections "NavigationPane*Frame2*Table1*List_Tree2" (list "Setup|Cell Zone Conditions|Fluid|fluid (fluid, id=4)"))
(cx-gui-do cx-set-list-tree-selections "NavigationPane*Frame2*Table1*List_Tree2" (list "Setup|Cell Zone Conditions|Fluid|porous (fluid, id=2)"))
(cx-gui-do cx-set-list-tree-selections "NavigationPane*Frame2*Table1*List_Tree2" (list "Setup|Cell Zone Conditions|Fluid|porous (fluid, id=2)"))
(cx-gui-do cx-activate-item "NavigationPane*Frame2*Table1*List_Tree2")
(cx-gui-do cx-set-list-tree-selections "NavigationPane*Frame2*Table1*List_Tree2" (list "Setup|Cell Zone Conditions|Fluid|porous (fluid, id=2)"))
(cx-gui-do cx-activate-tab-index "Fluid*Frame2*Table3*Frame1" 0)
(cx-gui-do cx-activate-tab-index "Fluid*Frame2*Table3*Frame1" 1)
(cx-gui-do cx-activate-tab-index "Fluid*Frame2*Table3*Frame1" 0)
(cx-gui-do cx-activate-tab-index "Fluid*Frame2*Table3*Frame1" 2)
(cx-gui-do cx-activate-tab-index "Fluid*Frame2*Table3*Frame1" 0)
(cx-gui-do cx-activate-tab-index "Fluid*Frame2*Table3*Frame1" 2)
(cx-gui-do cx-activate-tab-index "Fluid*Frame2*Table3*Frame1" 0)
(cx-gui-do cx-activate-tab-index "Fluid*Frame2*Table3*Frame1" 3)
(cx-gui-do cx-activate-tab-index "Fluid*Frame2*Table3*Frame1" 0)
(cx-gui-do cx-activate-tab-index "Fluid*Frame2*Table3*Frame1" 4)
(cx-gui-do cx-activate-tab-index "Fluid*Frame2*Table3*Frame1" 0)
(cx-gui-do cx-activate-tab-index "Fluid*Frame2*Table3*Frame1" 5)
(cx-gui-do cx-activate-tab-index "Fluid*Frame2*Table3*Frame1" 0)
(cx-gui-do cx-activate-tab-index "Fluid*Frame2*Table3*Frame1" 6)
(cx-gui-do cx-activate-tab-index "Fluid*Frame2*Table3*Frame1" 0)
(cx-gui-do cx-activate-tab-index "Fluid*Frame2*Table3*Frame1" 7)
(cx-gui-do cx-activate-tab-index "Fluid*Frame2*Table3*Frame1" 0)
(cx-gui-do cx-activate-tab-index "Fluid*Frame2*Table3*Frame1" 8)
(cx-gui-do cx-activate-tab-index "Fluid*Frame2*Table3*Frame1" 0)
(cx-gui-do cx-activate-tab-index "Fluid*Frame2*Table3*Frame1" 9)
(cx-gui-do cx-activate-tab-index "Fluid*Frame2*Table3*Frame1" 0)
(cx-gui-do cx-activate-tab-index "Fluid*Frame2*Table3*Frame1" 3)
(cx-gui-do cx-activate-item "Fluid*PanelButtons*PushButton1(OK)")
(cx-gui-do cx-enable-apply-button "Fluid")
(cx-gui-do cx-activate-item "Fluid*PanelButtons*PushButton2(Cancel)")
