Auto-Transcript Start Time:  19:37:48, 12 Aug 2025 GMT Summer Time 
Current Directory: "C:\Users\V.Chepuri\OneDrive - Cranfield University\irp\pablo\re_200000\AOA_12"

              Welcome to ANSYS Fluent 2024 R2

              Copyright 1987-2024 ANSYS, Inc. All Rights Reserved.
              Unauthorized use, distribution or duplication is prohibited.
              This product is subject to U.S. laws governing export and re-export.
              For full Legal Notice, see documentation.

Build Time: May 13 2024 11:17:42 EST  Build Id: 10192  
 
Connected License Server List:	1055@cclic-2.central.cranfield.ac.uk

*********************************************
Info: Your license enables 4-way parallel execution.
For faster simulations, please start the application with the appropriate parallel options.
*********************************************


     --------------------------------------------------------------
     This is an academic version of ANSYS FLUENT. Usage of this product
     license is limited to the terms and conditions specified in your ANSYS
     license form, additional terms section.
     --------------------------------------------------------------
Host spawning Node 0 on machine "37PCL051" (win64).

-------------------------------------------------------------------------------
ID    Hostname  Core  O.S.         PID    Vendor                          
-------------------------------------------------------------------------------
n0    37PCL051  1/28  Windows-x64  25876  Intel(R) Core(TM) i7-14700      
host  37PCL051        Windows-x64  18480  Intel(R) Core(TM) i7-14700      

MPI Option Selected: intel
-------------------------------------------------------------------------------

Cleanup script file is C:\\Users\\V.Chepuri\\OneDrive - Cranfield University\\irp\\pablo\\re_200000\\AOA_12\\cleanup-fluent-37PCL051-18480.bat

Posting ANSYS Product Improvement Program startup data
Done.

> (cx-gui-do cx-activate-item "Key Behavioral Changes*PanelButtons*PushButton1(OK)")
(cx-gui-do cx-activate-item "MenuBar*ReadSubMenu*Case...")
(cx-gui-do cx-set-file-dialog-entries "Select File" '( "template_medium.cas.h5") "CFF Case Files (*.cas.h5 *.msh.h5 *.MSH.h5 )")
Fast-loading "C:\PROGRA~1\ANSYSI~1\v242\fluent\fluent24.2.0\\addons\afd\lib\hdfio.bin"
Done.
Note: Rank = 0: Process affinity not being set (6).

Reading from 37PCL051:"C:/Users/V.Chepuri/OneDrive - Cranfield University/irp/pablo/re_200000/AOA_12/template_medium.cas.h5" in NODE0 mode ...
  Reading mesh ...
      181070 cells,     4 cell zones ...
          36824 mixed cells,  zone id: 2
         108032 mixed cells,  zone id: 4
          27008 mixed cells,  zone id: 12
           9206 mixed cells,  zone id: 11
      309160 faces,    14 face zones ...
          65137 2D interior faces,  zone id: 3
         181145 2D interior faces,  zone id: 5
             42 2D velocity-inlet faces,  zone id: 6
             38 2D pressure-outlet faces,  zone id: 7
             40 2D velocity-inlet faces,  zone id: 8
            458 2D interior faces,  zone id: 9
            456 2D interior faces,  zone id: 10
            228 2D parent-face faces,  zone id: 19
            229 2D parent-face faces,  zone id: 18
             20 2D parent-face faces,  zone id: 17
             19 2D parent-face faces,  zone id: 16
             21 2D parent-face faces,  zone id: 15
          45157 2D parent-face faces,  zone id: 14
          16170 2D parent-face faces,  zone id: 13
      102461 nodes,     1 node zone  ...
  Done.


Building...
     mesh
     materials,
     interface,
     domains,
	mixture
     zones,
	outlet
	inlet
	interior-fluid
	interior-porous
	symmetry
	upper
	lower
	fluid
	porous
WARNING: "Smooth" contours can't be displayed when node-values is set to off. Changing the Coloring type to "Banded".
     parallel,
Done.
(cx-gui-do cx-activate-item "ToolBar*Mesh Display*fl_mesh_svg_graphics_toolbar")
(cx-gui-do cx-activate-item "Mesh Display*PanelButtons*PushButton1(OK)")
(cx-gui-do cx-activate-item "Mesh Display*PanelButtons*PushButton2(Cancel)")
(cx-gui-do cx-set-list-tree-selections "NavigationPane*Frame2*Table1*List_Tree2" (list "Setup|Boundary Conditions|Inlet|inlet (velocity-inlet, id=6)"))
(cx-gui-do cx-set-list-tree-selections "NavigationPane*Frame2*Table1*List_Tree2" (list "Setup|Boundary Conditions|Inlet|inlet (velocity-inlet, id=6)"))
(cx-gui-do cx-activate-item "NavigationPane*Frame2*Table1*List_Tree2")
(cx-gui-do cx-set-list-tree-selections "NavigationPane*Frame2*Table1*List_Tree2" (list "Setup|Boundary Conditions|Inlet|inlet (velocity-inlet, id=6)"))
(cx-gui-do cx-activate-tab-index "Velocity Inlet*Frame2*Frame2" 0)
(cx-gui-do cx-activate-tab-index "Velocity Inlet*Frame2*Frame2" 1)
(cx-gui-do cx-activate-tab-index "Velocity Inlet*Frame2*Frame2" 0)
(cx-gui-do cx-activate-tab-index "Velocity Inlet*Frame2*Frame2" 2)
(cx-gui-do cx-activate-tab-index "Velocity Inlet*Frame2*Frame2" 0)
(cx-gui-do cx-activate-tab-index "Velocity Inlet*Frame2*Frame2" 3)
(cx-gui-do cx-activate-tab-index "Velocity Inlet*Frame2*Frame2" 0)
(cx-gui-do cx-activate-tab-index "Velocity Inlet*Frame2*Frame2" 4)
(cx-gui-do cx-activate-tab-index "Velocity Inlet*Frame2*Frame2" 0)
(cx-gui-do cx-activate-tab-index "Velocity Inlet*Frame2*Frame2" 5)
(cx-gui-do cx-activate-tab-index "Velocity Inlet*Frame2*Frame2" 0)
(cx-gui-do cx-activate-tab-index "Velocity Inlet*Frame2*Frame2" 6)
(cx-gui-do cx-activate-tab-index "Velocity Inlet*Frame2*Frame2" 0)
(cx-gui-do cx-activate-tab-index "Velocity Inlet*Frame2*Frame2" 7)
(cx-gui-do cx-activate-tab-index "Velocity Inlet*Frame2*Frame2" 0)
(cx-gui-do cx-activate-tab-index "Velocity Inlet*Frame2*Frame2" 8)
(cx-gui-do cx-activate-tab-index "Velocity Inlet*Frame2*Frame2" 0)
(cx-use-window-id 51)
(dolly-camera -0.653212 -0.244772 0)
(cx-use-window-id 51)
(handle-key "control ??")
(cx-use-window-id 51)
(dolly-camera -0.0820301 0.00335127 0)
(cx-use-window-id 51)
(handle-key "control ??")
(cx-use-window-id 51)
(dolly-camera -0.0923962 -0.00546746 0)
(cx-use-window-id 51)
(handle-key "??")
(cx-gui-do cx-enable-apply-button "Velocity Inlet")
(cx-gui-do cx-set-expression-entry "Velocity Inlet*Frame2*Frame2*Frame1(Momentum)*Table1*Table17*ExpressionEntry1(X-Velocity)" '("0.9781476007" . 0))
(cx-gui-do cx-set-expression-entry "Velocity Inlet*Frame2*Frame2*Frame1(Momentum)*Table1*Table18*ExpressionEntry1(Y-Velocity)" '("0.2079116908" . 0))
(cx-gui-do cx-activate-item "Velocity Inlet*PanelButtons*PushButton1(OK)")
(cx-gui-do cx-activate-item "Velocity Inlet*PanelButtons*PushButton2(Cancel)")
(cx-gui-do cx-set-list-tree-selections "NavigationPane*Frame2*Table1*List_Tree2" (list "Setup|Boundary Conditions|Inlet|symmetry (velocity-inlet, id=8)"))
(cx-gui-do cx-set-list-tree-selections "NavigationPane*Frame2*Table1*List_Tree2" (list "Setup|Boundary Conditions|Inlet|symmetry (velocity-inlet, id=8)"))
(cx-gui-do cx-activate-item "NavigationPane*Frame2*Table1*List_Tree2")
(cx-gui-do cx-set-list-tree-selections "NavigationPane*Frame2*Table1*List_Tree2" (list "Setup|Boundary Conditions|Inlet|symmetry (velocity-inlet, id=8)"))
(cx-gui-do cx-activate-tab-index "Velocity Inlet*Frame2*Frame2" 0)
(cx-gui-do cx-activate-tab-index "Velocity Inlet*Frame2*Frame2" 1)
(cx-gui-do cx-activate-tab-index "Velocity Inlet*Frame2*Frame2" 0)
(cx-gui-do cx-activate-tab-index "Velocity Inlet*Frame2*Frame2" 2)
(cx-gui-do cx-activate-tab-index "Velocity Inlet*Frame2*Frame2" 0)
(cx-gui-do cx-activate-tab-index "Velocity Inlet*Frame2*Frame2" 3)
(cx-gui-do cx-activate-tab-index "Velocity Inlet*Frame2*Frame2" 0)
(cx-gui-do cx-activate-tab-index "Velocity Inlet*Frame2*Frame2" 4)
(cx-gui-do cx-activate-tab-index "Velocity Inlet*Frame2*Frame2" 0)
(cx-gui-do cx-activate-tab-index "Velocity Inlet*Frame2*Frame2" 5)
(cx-gui-do cx-activate-tab-index "Velocity Inlet*Frame2*Frame2" 0)
(cx-gui-do cx-activate-tab-index "Velocity Inlet*Frame2*Frame2" 6)
(cx-gui-do cx-activate-tab-index "Velocity Inlet*Frame2*Frame2" 0)
(cx-gui-do cx-activate-tab-index "Velocity Inlet*Frame2*Frame2" 7)
(cx-gui-do cx-activate-tab-index "Velocity Inlet*Frame2*Frame2" 0)
(cx-gui-do cx-activate-tab-index "Velocity Inlet*Frame2*Frame2" 8)
(cx-gui-do cx-activate-tab-index "Velocity Inlet*Frame2*Frame2" 0)
(cx-gui-do cx-enable-apply-button "Velocity Inlet")
(cx-gui-do cx-set-expression-entry "Velocity Inlet*Frame2*Frame2*Frame1(Momentum)*Table1*Table18*ExpressionEntry1(Y-Velocity)" '("0.2079116908" . 0))
(cx-gui-do cx-set-expression-entry "Velocity Inlet*Frame2*Frame2*Frame1(Momentum)*Table1*Table17*ExpressionEntry1(X-Velocity)" '("0.9781476007" . 0))
(cx-gui-do cx-activate-item "Velocity Inlet*PanelButtons*PushButton1(OK)")
(cx-gui-do cx-activate-item "Velocity Inlet*PanelButtons*PushButton2(Cancel)")
(cx-gui-do cx-set-list-tree-selections "NavigationPane*Frame2*Table1*List_Tree2" (list "Solution|Initialization"))
(cx-gui-do cx-set-list-tree-selections "NavigationPane*Frame2*Table1*List_Tree2" (list "Solution|Initialization"))
(cx-gui-do cx-activate-item "NavigationPane*Frame2*Table1*List_Tree2")
(cx-gui-do cx-set-list-tree-selections "NavigationPane*Frame2*Table1*List_Tree2" (list "Solution|Initialization"))
(cx-gui-do cx-activate-item "Solution Initialization*Table1*Frame12*PushButton2(Initialize)")

Initialize using the hybrid initialization method.

Checking case topology... 
-This case has both inlets & outlets 
-Pressure information is not available at the boundaries.
 Case will be initialized with constant pressure

	iter		scalar-0

	1		1.000000e+00
	2		1.293160e-05
	3		9.893882e-07
	4		3.413002e-07
	5		6.739243e-08
	6		3.642557e-08
	7		3.559742e-08
	8		3.335188e-08
	9		3.587723e-08
	10		3.276282e-08

Hybrid initialization is done.
(cx-gui-do cx-activate-item "MenuBar*WriteSubMenu*Case...")
(cx-gui-do cx-set-file-dialog-entries "Select File" '( "template_medium.cas.h5") "CFF Case Files (*.cas.h5 )")
(cx-gui-do cx-activate-item "Question*OK")

Writing to 37PCL051:"C:/Users/V.Chepuri/OneDrive - Cranfield University/irp/pablo/re_200000/AOA_12/template_medium.cas.h5" in NODE0 mode and compression level 1 ...
Grouping cells for Laplace smoothing ...
      181070 cells,     4 zones ...
      309160 faces,    14 zones ...
      102461 nodes,     1 zone  ...
  Done.
Done.
(cx-gui-do cx-activate-item "MenuBar*ReadSubMenu*Journal...")

Reading journal file C:/Users/V.Chepuri/OneDrive - Cranfield University/irp/pablo/re_200000/AOA_12/template.jou...

> ;change to correct dir

file/read-case template_medium.cas.h5 OK
Note: Rank = 0: Process affinity not being set (6).

       Clearing partially read grid.

Reading from 37PCL051:"C:\Users\V.Chepuri\OneDrive - Cranfield University\irp\pablo\re_200000\AOA_12\template_medium.cas.h5" in NODE0 mode ...
  Reading mesh ...
      181070 cells,     4 cell zones ...
          36824 mixed cells,  zone id: 2
         108032 mixed cells,  zone id: 4
          27008 mixed cells,  zone id: 12
           9206 mixed cells,  zone id: 11
      309160 faces,    14 face zones ...
          65137 2D interior faces,  zone id: 3
         181145 2D interior faces,  zone id: 5
             42 2D velocity-inlet faces,  zone id: 6
             38 2D pressure-outlet faces,  zone id: 7
             40 2D velocity-inlet faces,  zone id: 8
            458 2D interior faces,  zone id: 9
            456 2D interior faces,  zone id: 10
            228 2D parent-face faces,  zone id: 19
            229 2D parent-face faces,  zone id: 18
             20 2D parent-face faces,  zone id: 17
             19 2D parent-face faces,  zone id: 16
             21 2D parent-face faces,  zone id: 15
          45157 2D parent-face faces,  zone id: 14
          16170 2D parent-face faces,  zone id: 13
      102461 nodes,     1 node zone  ...
  Done.


Building...
     mesh
     materials,
     interface,
     domains,
	mixture
     zones,
	outlet
	inlet
	interior-fluid
	interior-porous
	symmetry
	upper
	lower
	fluid
	porous
WARNING: "Smooth" contours can't be displayed when node-values is set to off. Changing the Coloring type to "Banded".
     parallel,
Done.

> 
adjoint/                parallel/               server/
define/                 parametric-study/       solve/
display/                plot/                   surface/
exit                    preferences/            views/
file/                   print-license-usage
mesh/                   report/

> ;modify permeability parameters
define/named-expressions/edit a definition " 0.0 " q q q

> define/named-expressions/edit b definition " 0.0 " q q q

> define/named-expressions/edit c definition " 0.0 " q q q

> define/named-expressions/edit d definition " 0.0 " q q q

> define/named-expressions/edit e1 definition " -5.0 " q q q

> define/named-expressions/edit a2 definition " 0.0 " q q q

> define/named-expressions/edit b2 definition " 0.0 " q q q

> define/named-expressions/edit c2 definition " 0.0 " q q q

> define/named-expressions/edit d2 definition " 0.0 " q q q

> define/named-expressions/edit e2 definition " -5.0 " q q q

> 
adjoint/                parallel/               server/
define/                 parametric-study/       solve/
display/                plot/                   surface/
exit                    preferences/            views/
file/                   print-license-usage
mesh/                   report/

> ;run simulation
solve/initialize/hyb-initialization 
Initialize using the hybrid initialization method.

Checking case topology... 
-This case has both inlets & outlets 
-Pressure information is not available at the boundaries.
 Case will be initialized with constant pressure

	iter		scalar-0

	1		1.000000e+00
	2		1.293160e-05
	3		9.893882e-07
	4		3.413002e-07
	5		6.739243e-08
	6		3.642557e-08
	7		3.559742e-08
	8		3.335188e-08
	9		3.587723e-08
	10		3.276282e-08

Hybrid initialization is done.


> solve/iterate 2000

  iter  continuity  x-velocity  y-velocity           k       omega     time/iter
     1  1.0000e+00  1.1917e-03  9.8555e-03  5.2624e-01  3.1196e-01  0:00:00 1999
     2  1.0000e+00  1.5459e-03  5.0180e-03  3.5861e-01  2.6759e-01  0:33:18 1998
     3  6.9619e-01  1.2738e-03  2.9226e-03  1.9043e-01  2.1324e-01  0:26:38 1997
     4  4.4411e-01  1.0633e-03  1.8513e-03  9.3100e-02  1.5725e-01  0:21:17 1996
     5  3.3691e-01  8.7442e-04  1.3554e-03  5.0670e-02  1.1015e-01  0:17:01 1995
     6  3.4382e-01  7.2104e-04  1.1638e-03  3.3075e-02  7.5740e-02  0:13:37 1994
     7  3.0174e-01  6.0954e-04  9.9270e-04  2.4294e-02  5.3055e-02  0:17:32 1993
     8  2.5433e-01  5.3921e-04  8.8335e-04  1.9075e-02  3.8590e-02  0:14:01 1992
     9  2.0196e-01  4.9029e-04  7.7894e-04  1.5578e-02  2.9298e-02  0:11:12 1991
    10  1.5743e-01  4.5273e-04  7.0070e-04  1.3186e-02  2.3135e-02  0:08:58 1990
    11  1.2154e-01  4.2174e-04  6.3809e-04  1.1533e-02  1.8863e-02  0:07:10 1989

  iter  continuity  x-velocity  y-velocity           k       omega     time/iter
    12  9.4395e-02  3.9690e-04  5.9030e-04  1.0216e-02  1.5792e-02  0:05:44 1988
    13  7.4935e-02  3.7422e-04  5.5011e-04  9.0899e-03  1.3318e-02  0:11:12 1987
    14  6.1567e-02  3.5232e-04  5.1453e-04  8.1571e-03  1.1444e-02  0:08:58 1986
    15  5.2663e-02  3.3234e-04  4.8379e-04  7.3733e-03  9.9851e-03  0:07:10 1985
    16  4.6796e-02  3.1439e-04  4.5635e-04  6.7183e-03  8.8223e-03  0:05:44 1984
    17  4.2772e-02  2.9845e-04  4.3153e-04  6.1622e-03  7.8808e-03  0:04:35 1983
    18  3.9300e-02  2.8437e-04  4.0864e-04  5.6851e-03  7.1035e-03  0:03:40 1982
    19  3.6429e-02  2.7198e-04  3.8749e-04  5.2691e-03  6.4527e-03  0:09:32 1981
    20  3.3894e-02  2.6086e-04  3.6757e-04  4.9041e-03  5.9002e-03  0:07:37 1980
    21  3.1679e-02  2.5057e-04  3.4915e-04  4.5846e-03  5.4259e-03  0:06:06 1979
    22  2.9983e-02  2.4120e-04  3.3180e-04  4.3010e-03  5.0146e-03  0:04:52 1978

  iter  continuity  x-velocity  y-velocity           k       omega     time/iter
    23  2.8456e-02  2.3263e-04  3.1545e-04  4.0467e-03  4.6554e-03  0:03:54 1977
    24  2.7048e-02  2.2493e-04  2.9983e-04  3.8172e-03  4.3386e-03  0:03:07 1976
    25  2.5804e-02  2.1790e-04  2.8512e-04  3.6096e-03  4.0574e-03  0:09:04 1975
    26  2.4658e-02  2.1152e-04  2.7121e-04  3.4206e-03  3.8065e-03  0:07:15 1974
    27  2.3871e-02  2.0570e-04  2.5802e-04  3.2502e-03  3.5815e-03  0:05:48 1973
    28  2.2984e-02  2.0028e-04  2.4554e-04  3.0952e-03  3.3793e-03  0:04:38 1972
    29  2.2286e-02  1.9534e-04  2.3377e-04  2.9541e-03  3.1962e-03  0:03:43 1971
    30  2.1785e-02  1.9087e-04  2.2253e-04  2.8258e-03  3.0303e-03  0:02:58 1970
    31  2.1209e-02  1.8658e-04  2.1207e-04  2.7087e-03  2.8792e-03  0:08:56 1969
    32  2.0774e-02  1.8275e-04  2.0211e-04  2.6003e-03  2.7412e-03  0:07:09 1968
    33  2.0456e-02  1.7932e-04  1.9271e-04  2.5000e-03  2.6148e-03  0:05:43 1967

  iter  continuity  x-velocity  y-velocity           k       omega     time/iter
    34  1.9895e-02  1.7599e-04  1.8393e-04  2.4073e-03  2.4986e-03  0:04:34 1966
    35  1.9279e-02  1.7301e-04  1.7544e-04  2.3211e-03  2.3916e-03  0:10:12 1965
    36  1.8808e-02  1.7013e-04  1.6749e-04  2.2412e-03  2.2927e-03  0:08:09 1964
    37  1.8428e-02  1.6757e-04  1.5993e-04  2.1667e-03  2.2009e-03  0:06:31 1963
    38  1.8385e-02  1.6509e-04  1.5285e-04  2.0973e-03  2.1157e-03  0:05:13 1962
    39  1.8023e-02  1.6224e-04  1.4639e-04  2.0318e-03  2.0363e-03  0:04:10 1961
    40  1.7928e-02  1.6057e-04  1.3964e-04  1.9704e-03  1.9619e-03  0:03:20 1960
    41  1.7661e-02  1.5831e-04  1.3376e-04  1.9132e-03  1.8922e-03  0:09:12 1959
    42  1.7599e-02  1.5690e-04  1.2772e-04  1.8595e-03  1.8271e-03  0:07:21 1958
    43  1.7558e-02  1.5481e-04  1.2248e-04  1.8092e-03  1.7656e-03  0:05:53 1957
    44  1.7460e-02  1.5299e-04  1.1729e-04  1.7615e-03  1.7076e-03  0:04:42 1956

  iter  continuity  x-velocity  y-velocity           k       omega     time/iter
    45  1.7388e-02  1.5214e-04  1.1200e-04  1.7163e-03  1.6529e-03  0:03:46 1955
    46  1.7324e-02  1.5022e-04  1.0759e-04  1.6736e-03  1.6012e-03  0:03:00 1954
    47  1.7143e-02  1.4858e-04  1.0325e-04  1.6334e-03  1.5525e-03  0:08:55 1953
    48  1.7259e-02  1.4713e-04  9.8999e-05  1.5957e-03  1.5061e-03  0:07:08 1952
    49  1.7255e-02  1.4593e-04  9.4931e-05  1.5600e-03  1.4620e-03  0:05:42 1951
    50  1.7330e-02  1.4468e-04  9.1133e-05  1.5255e-03  1.4200e-03  0:04:33 1950
    51  1.7329e-02  1.4335e-04  8.7513e-05  1.4927e-03  1.3800e-03  0:03:39 1949
    52  1.7246e-02  1.4187e-04  8.4267e-05  1.4612e-03  1.3420e-03  0:02:55 1948
    53  1.7268e-02  1.4061e-04  8.1018e-05  1.4318e-03  1.3056e-03  0:02:20 1947
    54  1.7213e-02  1.3927e-04  7.8029e-05  1.4034e-03  1.2709e-03  0:08:21 1946
    55  1.7167e-02  1.3803e-04  7.5229e-05  1.3765e-03  1.2376e-03  0:06:41 1945

  iter  continuity  x-velocity  y-velocity           k       omega     time/iter
    56  1.7159e-02  1.3660e-04  7.2578e-05  1.3506e-03  1.2057e-03  0:05:20 1944
    57  1.7073e-02  1.3525e-04  6.9997e-05  1.3257e-03  1.1752e-03  0:04:16 1943
    58  1.6979e-02  1.3389e-04  6.7591e-05  1.3020e-03  1.1459e-03  0:03:25 1942
    59  1.6960e-02  1.3265e-04  6.5340e-05  1.2791e-03  1.1178e-03  0:02:44 1941
    60  1.7060e-02  1.3136e-04  6.3223e-05  1.2572e-03  1.0908e-03  0:08:39 1940
    61  1.7157e-02  1.3001e-04  6.1247e-05  1.2361e-03  1.0649e-03  0:06:55 1939
    62  1.7194e-02  1.2886e-04  5.9311e-05  1.2161e-03  1.0400e-03  0:05:32 1938
    63  1.7392e-02  1.2765e-04  5.7535e-05  1.1969e-03  1.0161e-03  0:04:25 1937
    64  1.7457e-02  1.2640e-04  5.5786e-05  1.1781e-03  9.9305e-04  0:03:32 1936
    65  1.7470e-02  1.2514e-04  5.4221e-05  1.1605e-03  9.7088e-04  0:02:50 1935
    66  1.7527e-02  1.2407e-04  5.2704e-05  1.1438e-03  9.4940e-04  0:08:42 1934

  iter  continuity  x-velocity  y-velocity           k       omega     time/iter
    67  1.7631e-02  1.2295e-04  5.1304e-05  1.1272e-03  9.2874e-04  0:06:58 1933
    68  1.7662e-02  1.2189e-04  4.9919e-05  1.1116e-03  9.0886e-04  0:05:34 1932
    69  1.7660e-02  1.2078e-04  4.8671e-05  1.0961e-03  8.8973e-04  0:04:27 1931
    70  1.7537e-02  1.1976e-04  4.7506e-05  1.0819e-03  8.7109e-04  0:03:34 1930
    71  1.7448e-02  1.1868e-04  4.6454e-05  1.0678e-03  8.5306e-04  0:02:51 1929
    72  1.7500e-02  1.1761e-04  4.5433e-05  1.0539e-03  8.3573e-04  0:08:42 1928
    73  1.7520e-02  1.1664e-04  4.4435e-05  1.0410e-03  8.1898e-04  0:06:57 1927
    74  1.7417e-02  1.1572e-04  4.3505e-05  1.0281e-03  8.0298e-04  0:05:34 1926
    75  1.7353e-02  1.1484e-04  4.2723e-05  1.0156e-03  7.8749e-04  0:04:27 1925
    76  1.7311e-02  1.1397e-04  4.1961e-05  1.0039e-03  7.7248e-04  0:03:33 1924
    77  1.7381e-02  1.1321e-04  4.1299e-05  9.9191e-04  7.5804e-04  0:02:51 1923

  iter  continuity  x-velocity  y-velocity           k       omega     time/iter
    78  1.7338e-02  1.1247e-04  4.0632e-05  9.8093e-04  7.4408e-04  0:08:41 1922
    79  1.7352e-02  1.1169e-04  4.0051e-05  9.7062e-04  7.3058e-04  0:06:56 1921
    80  1.7401e-02  1.1087e-04  3.9486e-05  9.6010e-04  7.1755e-04  0:05:33 1920
    81  1.7384e-02  1.1009e-04  3.8991e-05  9.5022e-04  7.0491e-04  0:04:26 1919
    82  1.7275e-02  1.0932e-04  3.8480e-05  9.4083e-04  6.9269e-04  0:03:33 1918
    83  1.7091e-02  1.0857e-04  3.7937e-05  9.3158e-04  6.8081e-04  0:09:14 1917
    84  1.6932e-02  1.0787e-04  3.7444e-05  9.2279e-04  6.6939e-04  0:07:23 1916
    85  1.6856e-02  1.0724e-04  3.7050e-05  9.1464e-04  6.5826e-04  0:05:54 1915
    86  1.6696e-02  1.0661e-04  3.6673e-05  9.0688e-04  6.4747e-04  0:04:43 1914
    87  1.6559e-02  1.0596e-04  3.6336e-05  9.0012e-04  6.3697e-04  0:03:46 1913
    88  1.6517e-02  1.0526e-04  3.5992e-05  8.9376e-04  6.2702e-04  0:03:01 1912

  iter  continuity  x-velocity  y-velocity           k       omega     time/iter
    89  1.6395e-02  1.0457e-04  3.5650e-05  8.8828e-04  6.1744e-04  0:08:47 1911
    90  1.6420e-02  1.0391e-04  3.5287e-05  8.8317e-04  6.0821e-04  0:07:01 1910
    91  1.6320e-02  1.0314e-04  3.4980e-05  8.7879e-04  5.9938e-04  0:05:37 1909
    92  1.6209e-02  1.0245e-04  3.4677e-05  8.7544e-04  5.9089e-04  0:04:29 1908
    93  1.6145e-02  1.0192e-04  3.4416e-05  8.7237e-04  5.8274e-04  0:03:35 1907
    94  1.6063e-02  1.0139e-04  3.4174e-05  8.7012e-04  5.7478e-04  0:02:52 1906
    95  1.5979e-02  1.0081e-04  3.3950e-05  8.6907e-04  5.6712e-04  0:08:39 1905
    96  1.5898e-02  1.0022e-04  3.3750e-05  8.6863e-04  5.5974e-04  0:06:55 1904
    97  1.5816e-02  9.9591e-05  3.3540e-05  8.6842e-04  5.5263e-04  0:05:32 1903
    98  1.5697e-02  9.9036e-05  3.3327e-05  8.6901e-04  5.4571e-04  0:04:25 1902
    99  1.5663e-02  9.8463e-05  3.3066e-05  8.7003e-04  5.3897e-04  0:03:32 1901

  iter  continuity  x-velocity  y-velocity           k       omega     time/iter
   100  1.5644e-02  9.7879e-05  3.2805e-05  8.7195e-04  5.3235e-04  0:02:50 1900
   101  1.5561e-02  9.7257e-05  3.2556e-05  8.7443e-04  5.2608e-04  0:08:35 1899
   102  1.5434e-02  9.6636e-05  3.2310e-05  8.7773e-04  5.2011e-04  0:06:52 1898
   103  1.5323e-02  9.5964e-05  3.2028e-05  8.8160e-04  5.1432e-04  0:05:29 1897
   104  1.5227e-02  9.5287e-05  3.1759e-05  8.8632e-04  5.0876e-04  0:04:23 1896
   105  1.5138e-02  9.4696e-05  3.1498e-05  8.9207e-04  5.0332e-04  0:03:31 1895
   106  1.5097e-02  9.3959e-05  3.1258e-05  8.9818e-04  4.9817e-04  0:02:48 1894
   107  1.5034e-02  9.3261e-05  3.0991e-05  9.0493e-04  4.9302e-04  0:02:15 1893
   108  1.4959e-02  9.2599e-05  3.0743e-05  9.1231e-04  4.8805e-04  0:08:06 1892
   109  1.4818e-02  9.1893e-05  3.0505e-05  9.2011e-04  4.8309e-04  0:06:29 1891
   110  1.4710e-02  9.1242e-05  3.0248e-05  9.2909e-04  4.7843e-04  0:05:11 1890

  iter  continuity  x-velocity  y-velocity           k       omega     time/iter
   111  1.4564e-02  9.0600e-05  2.9970e-05  9.3859e-04  4.7381e-04  0:04:08 1889
   112  1.4468e-02  8.9973e-05  2.9684e-05  9.4730e-04  4.6920e-04  0:03:19 1888
   113  1.4357e-02  8.9314e-05  2.9441e-05  9.5759e-04  4.6470e-04  0:02:39 1887
   114  1.4246e-02  8.8629e-05  2.9216e-05  9.6822e-04  4.6033e-04  0:08:24 1886
   115  1.4180e-02  8.8052e-05  2.8938e-05  9.8035e-04  4.5614e-04  0:06:43 1885
   116  1.4110e-02  8.7466e-05  2.8673e-05  9.9299e-04  4.5216e-04  0:05:22 1884
   117  1.4026e-02  8.6889e-05  2.8437e-05  1.0058e-03  4.4818e-04  0:04:18 1883
   118  1.3778e-02  8.6217e-05  2.8179e-05  1.0186e-03  4.4443e-04  0:03:26 1882
   119  1.3692e-02  8.5632e-05  2.7942e-05  1.0320e-03  4.4082e-04  0:02:45 1881
   120  1.3731e-02  8.5052e-05  2.7701e-05  1.0465e-03  4.3734e-04  0:02:12 1880
   121  1.3708e-02  8.4423e-05  2.7479e-05  1.0621e-03  4.3399e-04  0:08:01 1879

  iter  continuity  x-velocity  y-velocity           k       omega     time/iter
   122  1.3531e-02  8.3761e-05  2.7274e-05  1.0782e-03  4.3083e-04  0:06:25 1878
   123  1.3463e-02  8.3140e-05  2.7062e-05  1.0942e-03  4.2770e-04  0:05:08 1877
   124  1.3387e-02  8.2531e-05  2.6866e-05  1.1113e-03  4.2462e-04  0:04:06 1876
   125  1.3396e-02  8.1973e-05  2.6657e-05  1.1290e-03  4.2160e-04  0:09:32 1875
   126  1.3322e-02  8.1388e-05  2.6476e-05  1.1472e-03  4.1863e-04  0:07:37 1874
   127  1.3275e-02  8.0827e-05  2.6258e-05  1.1652e-03  4.1570e-04  0:06:05 1873
   128  1.3219e-02  8.0231e-05  2.6065e-05  1.1841e-03  4.1276e-04  0:04:52 1872
   129  1.3077e-02  7.9606e-05  2.5861e-05  1.2034e-03  4.1002e-04  0:03:54 1871
   130  1.2989e-02  7.8967e-05  2.5653e-05  1.2226e-03  4.0728e-04  0:03:07 1870
   131  1.2982e-02  7.8382e-05  2.5445e-05  1.2417e-03  4.0468e-04  0:08:43 1869
   132  1.2937e-02  7.7833e-05  2.5238e-05  1.2622e-03  4.0224e-04  0:06:58 1868

  iter  continuity  x-velocity  y-velocity           k       omega     time/iter
   133  1.2901e-02  7.7302e-05  2.5033e-05  1.2829e-03  3.9987e-04  0:05:34 1867
   134  1.2796e-02  7.6748e-05  2.4832e-05  1.3044e-03  3.9756e-04  0:04:27 1866
   135  1.2653e-02  7.6179e-05  2.4629e-05  1.3264e-03  3.9539e-04  0:03:34 1865
   136  1.2579e-02  7.5602e-05  2.4424e-05  1.3480e-03  3.9330e-04  0:02:51 1864
   137  1.2497e-02  7.5056e-05  2.4226e-05  1.3703e-03  3.9128e-04  0:02:17 1863
   138  1.2466e-02  7.4532e-05  2.4021e-05  1.3924e-03  3.8940e-04  0:08:02 1862
   139  1.2453e-02  7.4029e-05  2.3839e-05  1.4152e-03  3.8756e-04  0:06:25 1861
   140  1.2418e-02  7.3543e-05  2.3646e-05  1.4380e-03  3.8576e-04  0:05:08 1860
   141  1.2353e-02  7.3084e-05  2.3426e-05  1.4608e-03  3.8403e-04  0:04:06 1859
   142  1.2260e-02  7.2625e-05  2.3217e-05  1.4842e-03  3.8235e-04  0:03:17 1858
   143  1.2208e-02  7.2138e-05  2.3036e-05  1.5069e-03  3.8072e-04  0:02:37 1857

  iter  continuity  x-velocity  y-velocity           k       omega     time/iter
   144  1.2216e-02  7.1681e-05  2.2836e-05  1.5299e-03  3.7926e-04  0:08:17 1856
   145  1.2073e-02  7.1166e-05  2.2653e-05  1.5528e-03  3.7774e-04  0:06:37 1855
   146  1.1979e-02  7.0695e-05  2.2467e-05  1.5755e-03  3.7616e-04  0:05:18 1854
   147  1.1957e-02  7.0306e-05  2.2310e-05  1.5973e-03  3.7462e-04  0:04:14 1853
   148  1.1966e-02  6.9935e-05  2.2138e-05  1.6199e-03  3.7308e-04  0:03:23 1852
   149  1.1996e-02  6.9585e-05  2.1976e-05  1.6423e-03  3.7159e-04  0:02:42 1851
   150  1.1986e-02  6.9233e-05  2.1785e-05  1.6636e-03  3.7011e-04  0:08:20 1850
   151  1.2000e-02  6.8909e-05  2.1611e-05  1.6849e-03  3.6872e-04  0:06:40 1849
   152  1.1983e-02  6.8591e-05  2.1394e-05  1.7056e-03  3.6723e-04  0:05:20 1848
   153  1.1913e-02  6.8294e-05  2.1182e-05  1.7253e-03  3.6559e-04  0:04:16 1847
   154  1.1892e-02  6.8031e-05  2.0966e-05  1.7453e-03  3.6408e-04  0:03:24 1846

  iter  continuity  x-velocity  y-velocity           k       omega     time/iter
   155  1.1873e-02  6.7714e-05  2.0772e-05  1.7649e-03  3.6248e-04  0:02:43 1845
   156  1.1905e-02  6.7414e-05  2.0567e-05  1.7839e-03  3.6085e-04  0:02:11 1844
   157  1.1860e-02  6.7121e-05  2.0361e-05  1.8026e-03  3.5935e-04  0:07:53 1843
   158  1.1827e-02  6.6810e-05  2.0179e-05  1.8205e-03  3.5777e-04  0:06:18 1842
   159  1.1811e-02  6.6545e-05  1.9971e-05  1.8383e-03  3.5616e-04  0:05:02 1841
   160  1.1786e-02  6.6278e-05  1.9785e-05  1.8562e-03  3.5458e-04  0:04:02 1840
   161  1.1837e-02  6.6018e-05  1.9628e-05  1.8726e-03  3.5287e-04  0:03:13 1839
   162  1.1817e-02  6.5767e-05  1.9456e-05  1.8888e-03  3.5127e-04  0:02:35 1838
   163  1.1815e-02  6.5480e-05  1.9275e-05  1.9049e-03  3.4968e-04  0:08:11 1837
   164  1.1842e-02  6.5193e-05  1.9075e-05  1.9206e-03  3.4805e-04  0:06:33 1836
   165  1.1900e-02  6.4947e-05  1.8898e-05  1.9350e-03  3.4643e-04  0:05:14 1835

  iter  continuity  x-velocity  y-velocity           k       omega     time/iter
   166  1.1935e-02  6.4629e-05  1.8708e-05  1.9487e-03  3.4484e-04  0:04:11 1834
   167  1.1931e-02  6.4285e-05  1.8526e-05  1.9619e-03  3.4320e-04  0:03:21 1833
   168  1.1951e-02  6.3939e-05  1.8380e-05  1.9749e-03  3.4157e-04  0:02:40 1832
   169  1.1932e-02  6.3609e-05  1.8214e-05  1.9869e-03  3.3983e-04  0:08:14 1831
   170  1.1864e-02  6.3285e-05  1.8051e-05  1.9986e-03  3.3819e-04  0:06:35 1830
   171  1.1844e-02  6.3019e-05  1.7896e-05  2.0093e-03  3.3649e-04  0:05:16 1829
   172  1.1869e-02  6.2746e-05  1.7755e-05  2.0201e-03  3.3483e-04  0:04:13 1828
   173  1.1844e-02  6.2468e-05  1.7619e-05  2.0305e-03  3.3328e-04  0:03:22 1827
   174  1.1787e-02  6.2204e-05  1.7470e-05  2.0402e-03  3.3174e-04  0:08:47 1826
   175  1.1752e-02  6.1923e-05  1.7341e-05  2.0490e-03  3.3023e-04  0:07:01 1825
   176  1.1719e-02  6.1673e-05  1.7204e-05  2.0573e-03  3.2868e-04  0:05:37 1824

  iter  continuity  x-velocity  y-velocity           k       omega     time/iter
   177  1.1757e-02  6.1466e-05  1.7083e-05  2.0648e-03  3.2719e-04  0:04:29 1823
   178  1.1809e-02  6.1244e-05  1.6978e-05  2.0721e-03  3.2579e-04  0:03:35 1822
   179  1.1779e-02  6.1006e-05  1.6892e-05  2.0788e-03  3.2445e-04  0:02:52 1821
   180  1.1849e-02  6.0773e-05  1.6835e-05  2.0853e-03  3.2313e-04  0:08:22 1820
   181  1.1929e-02  6.0538e-05  1.6762e-05  2.0909e-03  3.2185e-04  0:06:41 1819
   182  1.1955e-02  6.0339e-05  1.6699e-05  2.0960e-03  3.2049e-04  0:05:21 1818
   183  1.1990e-02  6.0182e-05  1.6633e-05  2.1011e-03  3.1895e-04  0:04:16 1817
   184  1.2008e-02  5.9987e-05  1.6584e-05  2.1058e-03  3.1750e-04  0:03:25 1816
   185  1.2029e-02  5.9765e-05  1.6522e-05  2.1097e-03  3.1614e-04  0:02:44 1815
   186  1.2057e-02  5.9565e-05  1.6482e-05  2.1132e-03  3.1493e-04  0:02:11 1814
   187  1.2103e-02  5.9336e-05  1.6442e-05  2.1168e-03  3.1371e-04  0:07:47 1813

  iter  continuity  x-velocity  y-velocity           k       omega     time/iter
   188  1.2140e-02  5.9119e-05  1.6408e-05  2.1196e-03  3.1262e-04  0:06:14 1812
   189  1.2119e-02  5.8846e-05  1.6367e-05  2.1222e-03  3.1155e-04  0:04:59 1811
   190  1.2085e-02  5.8575e-05  1.6339e-05  2.1242e-03  3.1049e-04  0:03:59 1810
   191  1.2101e-02  5.8320e-05  1.6344e-05  2.1260e-03  3.0938e-04  0:03:11 1809
   192  1.2124e-02  5.8129e-05  1.6327e-05  2.1280e-03  3.0838e-04  0:02:33 1808
   193  1.2183e-02  5.7894e-05  1.6311e-05  2.1296e-03  3.0753e-04  0:08:04 1807
   194  1.2251e-02  5.7630e-05  1.6290e-05  2.1308e-03  3.0683e-04  0:06:27 1806
   195  1.2321e-02  5.7382e-05  1.6310e-05  2.1314e-03  3.0606e-04  0:05:09 1805
   196  1.2341e-02  5.7073e-05  1.6327e-05  2.1321e-03  3.0543e-04  0:04:07 1804
   197  1.2363e-02  5.6744e-05  1.6335e-05  2.1324e-03  3.0521e-04  0:03:18 1803
   198  1.2358e-02  5.6405e-05  1.6317e-05  2.1325e-03  3.0560e-04  0:02:38 1802

  iter  continuity  x-velocity  y-velocity           k       omega     time/iter
   199  1.2339e-02  5.6071e-05  1.6321e-05  2.1322e-03  3.0591e-04  0:08:07 1801
   200  1.2345e-02  5.5743e-05  1.6346e-05  2.1322e-03  3.0650e-04  0:06:29 1800
   201  1.2317e-02  5.5389e-05  1.6347e-05  2.1324e-03  3.0793e-04  0:05:11 1799
   202  1.2323e-02  5.5002e-05  1.6325e-05  2.1334e-03  3.0998e-04  0:04:09 1798
   203  1.2285e-02  5.4594e-05  1.6297e-05  2.1346e-03  3.1235e-04  0:03:19 1797
   204  1.2241e-02  5.4163e-05  1.6276e-05  2.1366e-03  3.1582e-04  0:02:39 1796
   205  1.2227e-02  5.3710e-05  1.6255e-05  2.1399e-03  3.2064e-04  0:02:07 1795
   206  1.2195e-02  5.3275e-05  1.6224e-05  2.1450e-03  3.2629e-04  0:07:40 1794
   207  1.2134e-02  5.2837e-05  1.6175e-05  2.1514e-03  3.3295e-04  0:06:08 1793
   208  1.2095e-02  5.2415e-05  1.6151e-05  2.1599e-03  3.4070e-04  0:04:54 1792
   209  1.2061e-02  5.1951e-05  1.6145e-05  2.1695e-03  3.4814e-04  0:03:55 1791

  iter  continuity  x-velocity  y-velocity           k       omega     time/iter
   210  1.2028e-02  5.1513e-05  1.6120e-05  2.1786e-03  3.5428e-04  0:03:08 1790
   211  1.1989e-02  5.1066e-05  1.6062e-05  2.1900e-03  3.6182e-04  0:02:30 1789
   212  1.1945e-02  5.0629e-05  1.6038e-05  2.2022e-03  3.7054e-04  0:07:58 1788
   213  1.1884e-02  5.0191e-05  1.6018e-05  2.2163e-03  3.8150e-04  0:06:22 1787
   214  1.1856e-02  4.9743e-05  1.5986e-05  2.2265e-03  3.8991e-04  0:05:06 1786
   215  1.1776e-02  4.9293e-05  1.5920e-05  2.2387e-03  3.9486e-04  0:04:04 1785
   216  1.1679e-02  4.8866e-05  1.5816e-05  2.2552e-03  4.0165e-04  0:03:15 1784
   217  1.1602e-02  4.8495e-05  1.5725e-05  2.2750e-03  4.1209e-04  0:08:33 1783
   218  1.1493e-02  4.8115e-05  1.5631e-05  2.2941e-03  4.2132e-04  0:06:50 1782
   219  1.1328e-02  4.7745e-05  1.5548e-05  2.3130e-03  4.3609e-04  0:05:28 1781
   220  1.1128e-02  4.7383e-05  1.5455e-05  2.3344e-03  4.4825e-04  0:04:22 1780

  iter  continuity  x-velocity  y-velocity           k       omega     time/iter
   221  1.0940e-02  4.7012e-05  1.5365e-05  2.3564e-03  4.5775e-04  0:03:30 1779
   222  1.0749e-02  4.6646e-05  1.5230e-05  2.3797e-03  4.6401e-04  0:02:48 1778
   223  1.0578e-02  4.6299e-05  1.5106e-05  2.4013e-03  4.7005e-04  0:08:09 1777
   224  1.0406e-02  4.5949e-05  1.5021e-05  2.4212e-03  4.7565e-04  0:06:31 1776
   225  1.0271e-02  4.5621e-05  1.4926e-05  2.4422e-03  4.8400e-04  0:05:13 1775
   226  1.0154e-02  4.5314e-05  1.4799e-05  2.4642e-03  4.9602e-04  0:04:10 1774
   227  1.0023e-02  4.5030e-05  1.4644e-05  2.4860e-03  5.0506e-04  0:03:20 1773
   228  9.9180e-03  4.4740e-05  1.4564e-05  2.5114e-03  5.1516e-04  0:02:40 1772
   229  9.8266e-03  4.4478e-05  1.4490e-05  2.5273e-03  5.2132e-04  0:08:02 1771
   230  9.7321e-03  4.4205e-05  1.4408e-05  2.5410e-03  5.2998e-04  0:06:25 1770
   231  9.6129e-03  4.3948e-05  1.4330e-05  2.5549e-03  5.4299e-04  0:05:08 1769

  iter  continuity  x-velocity  y-velocity           k       omega     time/iter
   232  9.5018e-03  4.3701e-05  1.4221e-05  2.5713e-03  5.5692e-04  0:04:06 1768
   233  9.3882e-03  4.3464e-05  1.4125e-05  2.5821e-03  5.6664e-04  0:03:17 1767
   234  9.2381e-03  4.3280e-05  1.4048e-05  2.5956e-03  5.7480e-04  0:02:38 1766
   235  9.1045e-03  4.3090e-05  1.3967e-05  2.6199e-03  5.8657e-04  0:07:59 1765
   236  8.9746e-03  4.2902e-05  1.3898e-05  2.6419e-03  5.9948e-04  0:06:23 1764
   237  8.8399e-03  4.2712e-05  1.3836e-05  2.6575e-03  6.1332e-04  0:05:06 1763
   238  8.6984e-03  4.2527e-05  1.3772e-05  2.6583e-03  6.2663e-04  0:04:05 1762
   239  8.6055e-03  4.2373e-05  1.3686e-05  2.6598e-03  6.3242e-04  0:03:16 1761
   240  8.5132e-03  4.2216e-05  1.3585e-05  2.6653e-03  6.4397e-04  0:02:36 1760
   241  8.4121e-03  4.2074e-05  1.3491e-05  2.6592e-03  6.4427e-04  0:02:05 1759
   242  8.3133e-03  4.1921e-05  1.3408e-05  2.6479e-03  6.4252e-04  0:07:32 1758

  iter  continuity  x-velocity  y-velocity           k       omega     time/iter
   243  8.1879e-03  4.1781e-05  1.3331e-05  2.6350e-03  6.4027e-04  0:06:01 1757
   244  8.0650e-03  4.1637e-05  1.3284e-05  2.6191e-03  6.4583e-04  0:04:49 1756
   245  7.9268e-03  4.1479e-05  1.3211e-05  2.6028e-03  6.4673e-04  0:03:51 1755
   246  7.7763e-03  4.1359e-05  1.3118e-05  2.5867e-03  6.5110e-04  0:03:05 1754
   247  7.6138e-03  4.1242e-05  1.3044e-05  2.5686e-03  6.5125e-04  0:02:28 1753
   248  7.4753e-03  4.1127e-05  1.2949e-05  2.5491e-03  6.4683e-04  0:07:48 1752
   249  7.3445e-03  4.0999e-05  1.2876e-05  2.5267e-03  6.4255e-04  0:06:14 1751
   250  7.2069e-03  4.0867e-05  1.2796e-05  2.5003e-03  6.3593e-04  0:04:59 1750
   251  7.1070e-03  4.0721e-05  1.2755e-05  2.4743e-03  6.3308e-04  0:03:59 1749
   252  7.0242e-03  4.0586e-05  1.2710e-05  2.4490e-03  6.2916e-04  0:03:11 1748
   253  6.9603e-03  4.0459e-05  1.2672e-05  2.4241e-03  6.2444e-04  0:02:33 1747

  iter  continuity  x-velocity  y-velocity           k       omega     time/iter
   254  6.9216e-03  4.0334e-05  1.2668e-05  2.3996e-03  6.1927e-04  0:07:52 1746
   255  6.8716e-03  4.0198e-05  1.2627e-05  2.3763e-03  6.1311e-04  0:06:17 1745
   256  6.8503e-03  4.0085e-05  1.2614e-05  2.3528e-03  6.1048e-04  0:05:01 1744
   257  6.8460e-03  3.9992e-05  1.2657e-05  2.3304e-03  6.0561e-04  0:04:01 1743
   258  6.8386e-03  3.9888e-05  1.2631e-05  2.3086e-03  6.0161e-04  0:03:13 1742
   259  6.8617e-03  3.9782e-05  1.2609e-05  2.2875e-03  5.9836e-04  0:02:34 1741
   260  6.8690e-03  3.9654e-05  1.2626e-05  2.2666e-03  5.9424e-04  0:02:03 1740
   261  6.8593e-03  3.9528e-05  1.2645e-05  2.2458e-03  5.9072e-04  0:07:26 1739
   262  6.8344e-03  3.9390e-05  1.2633e-05  2.2250e-03  5.8629e-04  0:05:57 1738
   263  6.8317e-03  3.9291e-05  1.2668e-05  2.2048e-03  5.8166e-04  0:04:45 1737
   264  6.8161e-03  3.9184e-05  1.2670e-05  2.1851e-03  5.7911e-04  0:09:35 1736

  iter  continuity  x-velocity  y-velocity           k       omega     time/iter
   265  6.8003e-03  3.9070e-05  1.2642e-05  2.1659e-03  5.7408e-04  0:07:40 1735
   266  6.7625e-03  3.8941e-05  1.2604e-05  2.1466e-03  5.7138e-04  0:06:08 1734
   267  6.7434e-03  3.8799e-05  1.2582e-05  2.1282e-03  5.6757e-04  0:04:54 1733
   268  6.7176e-03  3.8682e-05  1.2575e-05  2.1105e-03  5.6523e-04  0:03:55 1732
   269  6.7008e-03  3.8572e-05  1.2569e-05  2.0933e-03  5.6353e-04  0:03:08 1731
   270  6.6971e-03  3.8480e-05  1.2575e-05  2.0771e-03  5.6313e-04  0:02:30 1730
   271  6.6946e-03  3.8362e-05  1.2556e-05  2.0618e-03  5.6145e-04  0:07:46 1729
   272  6.6922e-03  3.8275e-05  1.2540e-05  2.0483e-03  5.6379e-04  0:06:13 1728
   273  6.6911e-03  3.8206e-05  1.2544e-05  2.0370e-03  5.6654e-04  0:04:58 1727
   274  6.6851e-03  3.8134e-05  1.2539e-05  2.0292e-03  5.7390e-04  0:03:58 1726
   275  6.6592e-03  3.8057e-05  1.2531e-05  2.0259e-03  5.8319e-04  0:03:10 1725

  iter  continuity  x-velocity  y-velocity           k       omega     time/iter
   276  6.6177e-03  3.7973e-05  1.2509e-05  2.0283e-03  5.9502e-04  0:02:32 1724
   277  6.5970e-03  3.7913e-05  1.2506e-05  2.0391e-03  6.1350e-04  0:07:46 1723
   278  6.5438e-03  3.7847e-05  1.2483e-05  2.0569e-03  6.3475e-04  0:06:13 1722
   279  6.4939e-03  3.7787e-05  1.2467e-05  2.0794e-03  6.6065e-04  0:04:58 1721
   280  6.4523e-03  3.7723e-05  1.2441e-05  2.1057e-03  6.8832e-04  0:03:58 1720
   281  6.4001e-03  3.7657e-05  1.2399e-05  2.1290e-03  7.1644e-04  0:03:11 1719
   282  6.3586e-03  3.7591e-05  1.2375e-05  2.1512e-03  7.4744e-04  0:02:32 1718
   283  6.3125e-03  3.7523e-05  1.2341e-05  2.1641e-03  7.6974e-04  0:07:45 1717
   284  6.2683e-03  3.7454e-05  1.2294e-05  2.1732e-03  7.9316e-04  0:06:12 1716
   285  6.2180e-03  3.7362e-05  1.2247e-05  2.1732e-03  8.0714e-04  0:04:57 1715
   286  6.1897e-03  3.7284e-05  1.2217e-05  2.1696e-03  8.1844e-04  0:03:58 1714

  iter  continuity  x-velocity  y-velocity           k       omega     time/iter
   287  6.1595e-03  3.7212e-05  1.2179e-05  2.1572e-03  8.1832e-04  0:03:10 1713
   288  6.1225e-03  3.7132e-05  1.2136e-05  2.1417e-03  8.1492e-04  0:02:32 1712
   289  6.1043e-03  3.7069e-05  1.2085e-05  2.1259e-03  8.1661e-04  0:02:02 1711
   290  6.1001e-03  3.7016e-05  1.2051e-05  2.1070e-03  8.1408e-04  0:07:19 1710
   291  6.0782e-03  3.6961e-05  1.2014e-05  2.0850e-03  8.0309e-04  0:05:51 1709
   292  6.0509e-03  3.6907e-05  1.1990e-05  2.0640e-03  7.9052e-04  0:04:41 1708
   293  6.0175e-03  3.6846e-05  1.1979e-05  2.0453e-03  7.8319e-04  0:03:44 1707
   294  5.9705e-03  3.6782e-05  1.1974e-05  2.0282e-03  7.7717e-04  0:02:59 1706
   295  5.9557e-03  3.6704e-05  1.1969e-05  2.0103e-03  7.6916e-04  0:02:23 1705
   296  5.9270e-03  3.6623e-05  1.1945e-05  1.9912e-03  7.5839e-04  0:07:36 1704
   297  5.8997e-03  3.6545e-05  1.1920e-05  1.9716e-03  7.4635e-04  0:06:04 1703

  iter  continuity  x-velocity  y-velocity           k       omega     time/iter
   298  5.8749e-03  3.6478e-05  1.1903e-05  1.9528e-03  7.3275e-04  0:04:51 1702
   299  5.8304e-03  3.6403e-05  1.1866e-05  1.9353e-03  7.2270e-04  0:03:53 1701
   300  5.7611e-03  3.6310e-05  1.1819e-05  1.9198e-03  7.1316e-04  0:03:06 1700
   301  5.7031e-03  3.6215e-05  1.1769e-05  1.9036e-03  7.0533e-04  0:02:29 1699
   302  5.6408e-03  3.6119e-05  1.1743e-05  1.8873e-03  6.9570e-04  0:01:59 1698
   303  5.5701e-03  3.6012e-05  1.1706e-05  1.8704e-03  6.8385e-04  0:07:15 1697
   304  5.5156e-03  3.5920e-05  1.1666e-05  1.8535e-03  6.7230e-04  0:05:47 1696
   305  5.4605e-03  3.5827e-05  1.1605e-05  1.8370e-03  6.6052e-04  0:04:38 1695
   306  5.4050e-03  3.5749e-05  1.1563e-05  1.8212e-03  6.4848e-04  0:03:42 1694
   307  5.3662e-03  3.5674e-05  1.1520e-05  1.8053e-03  6.3759e-04  0:02:58 1693
   308  5.3141e-03  3.5593e-05  1.1494e-05  1.7901e-03  6.2693e-04  0:02:22 1692

  iter  continuity  x-velocity  y-velocity           k       omega     time/iter
   309  5.2619e-03  3.5519e-05  1.1458e-05  1.7750e-03  6.1580e-04  0:07:32 1691
   310  5.2094e-03  3.5446e-05  1.1409e-05  1.7599e-03  6.0555e-04  0:06:01 1690
   311  5.1633e-03  3.5375e-05  1.1363e-05  1.7446e-03  5.9485e-04  0:04:49 1689
   312  5.1094e-03  3.5296e-05  1.1322e-05  1.7291e-03  5.8400e-04  0:03:51 1688
   313  5.0606e-03  3.5203e-05  1.1271e-05  1.7133e-03  5.7356e-04  0:03:05 1687
   314  5.0105e-03  3.5117e-05  1.1224e-05  1.6980e-03  5.6280e-04  0:08:05 1686
   315  4.9667e-03  3.5035e-05  1.1171e-05  1.6828e-03  5.5230e-04  0:06:28 1685
   316  4.9219e-03  3.4945e-05  1.1125e-05  1.6677e-03  5.4193e-04  0:05:10 1684
   317  4.8753e-03  3.4858e-05  1.1075e-05  1.6529e-03  5.3170e-04  0:04:08 1683
   318  4.8308e-03  3.4780e-05  1.1035e-05  1.6382e-03  5.2175e-04  0:03:18 1682
   319  4.7857e-03  3.4698e-05  1.1006e-05  1.6238e-03  5.1215e-04  0:02:38 1681

  iter  continuity  x-velocity  y-velocity           k       omega     time/iter
   320  4.7398e-03  3.4619e-05  1.0990e-05  1.6097e-03  5.0292e-04  0:07:43 1680
   321  4.6892e-03  3.4553e-05  1.0974e-05  1.5962e-03  4.9398e-04  0:06:10 1679
   322  4.6391e-03  3.4495e-05  1.0962e-05  1.5832e-03  4.8583e-04  0:04:56 1678
   323  4.5914e-03  3.4425e-05  1.0954e-05  1.5705e-03  4.7822e-04  0:03:56 1677
   324  4.5355e-03  3.4358e-05  1.0937e-05  1.5578e-03  4.7093e-04  0:03:09 1676
   325  4.4765e-03  3.4299e-05  1.0925e-05  1.5457e-03  4.6391e-04  0:02:31 1675
   326  4.4304e-03  3.4242e-05  1.0910e-05  1.5337e-03  4.5740e-04  0:02:01 1674
   327  4.3889e-03  3.4187e-05  1.0891e-05  1.5219e-03  4.5102e-04  0:07:11 1673
   328  4.3637e-03  3.4130e-05  1.0882e-05  1.5106e-03  4.4483e-04  0:05:45 1672
   329  4.3349e-03  3.4074e-05  1.0868e-05  1.4992e-03  4.3886e-04  0:04:36 1671
   330  4.3114e-03  3.4017e-05  1.0857e-05  1.4878e-03  4.3328e-04  0:03:40 1670

  iter  continuity  x-velocity  y-velocity           k       omega     time/iter
   331  4.2819e-03  3.3956e-05  1.0848e-05  1.4765e-03  4.2796e-04  0:02:56 1669
   332  4.2682e-03  3.3898e-05  1.0849e-05  1.4655e-03  4.2272e-04  0:02:21 1668
   333  4.2442e-03  3.3846e-05  1.0847e-05  1.4542e-03  4.1709e-04  0:07:26 1667
   334  4.2167e-03  3.3787e-05  1.0837e-05  1.4428e-03  4.1150e-04  0:05:57 1666
   335  4.1962e-03  3.3729e-05  1.0818e-05  1.4315e-03  4.0575e-04  0:04:45 1665
   336  4.1704e-03  3.3671e-05  1.0798e-05  1.4203e-03  4.0006e-04  0:03:48 1664
   337  4.1460e-03  3.3621e-05  1.0776e-05  1.4087e-03  3.9430e-04  0:03:02 1663
   338  4.1297e-03  3.3581e-05  1.0754e-05  1.3974e-03  3.8874e-04  0:02:26 1662
   339  4.1068e-03  3.3529e-05  1.0735e-05  1.3860e-03  3.8277e-04  0:01:57 1661
   340  4.0728e-03  3.3476e-05  1.0717e-05  1.3745e-03  3.7693e-04  0:07:05 1660
   341  4.0454e-03  3.3421e-05  1.0706e-05  1.3633e-03  3.7116e-04  0:05:40 1659

  iter  continuity  x-velocity  y-velocity           k       omega     time/iter
   342  4.0169e-03  3.3367e-05  1.0692e-05  1.3523e-03  3.6566e-04  0:04:32 1658
   343  3.9789e-03  3.3319e-05  1.0667e-05  1.3414e-03  3.6016e-04  0:03:37 1657
   344  3.9495e-03  3.3269e-05  1.0641e-05  1.3306e-03  3.5457e-04  0:02:54 1656
   345  3.9126e-03  3.3224e-05  1.0622e-05  1.3199e-03  3.4892e-04  0:02:19 1655
   346  3.8903e-03  3.3178e-05  1.0604e-05  1.3093e-03  3.4348e-04  0:07:22 1654
   347  3.8679e-03  3.3138e-05  1.0585e-05  1.2988e-03  3.3769e-04  0:05:53 1653
   348  3.8370e-03  3.3101e-05  1.0563e-05  1.2881e-03  3.3188e-04  0:04:42 1652
   349  3.8012e-03  3.3057e-05  1.0539e-05  1.2773e-03  3.2614e-04  0:03:46 1651
   350  3.7781e-03  3.3010e-05  1.0515e-05  1.2663e-03  3.2072e-04  0:03:01 1650
   351  3.7510e-03  3.2961e-05  1.0493e-05  1.2556e-03  3.1556e-04  0:02:24 1649
   352  3.7320e-03  3.2919e-05  1.0465e-05  1.2452e-03  3.1044e-04  0:01:55 1648

  iter  continuity  x-velocity  y-velocity           k       omega     time/iter
   353  3.7269e-03  3.2884e-05  1.0436e-05  1.2347e-03  3.0542e-04  0:07:02 1647
   354  3.7051e-03  3.2848e-05  1.0408e-05  1.2246e-03  3.0083e-04  0:05:37 1646
   355  3.6740e-03  3.2807e-05  1.0379e-05  1.2144e-03  2.9619e-04  0:04:30 1645
   356  3.6496e-03  3.2765e-05  1.0344e-05  1.2042e-03  2.9157e-04  0:03:36 1644
   357  3.6154e-03  3.2717e-05  1.0319e-05  1.1943e-03  2.8724e-04  0:02:52 1643
   358  3.5862e-03  3.2670e-05  1.0298e-05  1.1846e-03  2.8304e-04  0:07:46 1642
   359  3.5780e-03  3.2631e-05  1.0285e-05  1.1752e-03  2.7895e-04  0:06:13 1641
   360  3.5759e-03  3.2594e-05  1.0265e-05  1.1660e-03  2.7496e-04  0:04:58 1640
   361  3.5720e-03  3.2552e-05  1.0238e-05  1.1573e-03  2.7119e-04  0:03:58 1639
   362  3.5669e-03  3.2506e-05  1.0214e-05  1.1488e-03  2.6760e-04  0:03:10 1638
   363  3.5427e-03  3.2471e-05  1.0187e-05  1.1406e-03  2.6410e-04  0:02:32 1637

  iter  continuity  x-velocity  y-velocity           k       omega     time/iter
   364  3.5255e-03  3.2433e-05  1.0159e-05  1.1326e-03  2.6081e-04  0:07:29 1636
   365  3.4982e-03  3.2392e-05  1.0129e-05  1.1247e-03  2.5766e-04  0:05:59 1635
   366  3.4781e-03  3.2350e-05  1.0098e-05  1.1170e-03  2.5463e-04  0:04:47 1634
   367  3.4885e-03  3.2314e-05  1.0073e-05  1.1091e-03  2.5169e-04  0:03:49 1633
   368  3.4850e-03  3.2279e-05  1.0050e-05  1.1014e-03  2.4893e-04  0:03:03 1632
   369  3.4797e-03  3.2248e-05  1.0026e-05  1.0937e-03  2.4627e-04  0:02:27 1631
   370  3.4758e-03  3.2213e-05  1.0002e-05  1.0857e-03  2.4375e-04  0:07:23 1630
   371  3.4631e-03  3.2166e-05  9.9694e-06  1.0778e-03  2.4133e-04  0:05:54 1629
   372  3.4209e-03  3.2111e-05  9.9329e-06  1.0701e-03  2.3900e-04  0:04:43 1628
   373  3.3998e-03  3.2066e-05  9.8934e-06  1.0624e-03  2.3684e-04  0:03:47 1627
   374  3.3992e-03  3.2014e-05  9.8622e-06  1.0548e-03  2.3472e-04  0:03:01 1626

  iter  continuity  x-velocity  y-velocity           k       omega     time/iter
   375  3.3997e-03  3.1968e-05  9.8349e-06  1.0474e-03  2.3269e-04  0:02:25 1625
   376  3.4050e-03  3.1918e-05  9.8108e-06  1.0399e-03  2.3070e-04  0:01:56 1624
   377  3.4081e-03  3.1861e-05  9.7843e-06  1.0326e-03  2.2880e-04  0:06:57 1623
   378  3.3995e-03  3.1795e-05  9.7480e-06  1.0251e-03  2.2694e-04  0:05:34 1622
   379  3.3827e-03  3.1713e-05  9.7103e-06  1.0180e-03  2.2509e-04  0:04:27 1621
   380  3.3728e-03  3.1638e-05  9.6682e-06  1.0110e-03  2.2327e-04  0:03:33 1620
   381  3.3463e-03  3.1563e-05  9.6287e-06  1.0041e-03  2.2150e-04  0:02:50 1619
   382  3.3264e-03  3.1488e-05  9.5828e-06  9.9713e-04  2.1973e-04  0:02:16 1618
   383  3.3135e-03  3.1415e-05  9.5369e-06  9.8998e-04  2.1802e-04  0:07:12 1617
   384  3.2988e-03  3.1345e-05  9.4952e-06  9.8301e-04  2.1633e-04  0:05:46 1616
   385  3.2875e-03  3.1279e-05  9.4468e-06  9.7582e-04  2.1464e-04  0:04:36 1615

  iter  continuity  x-velocity  y-velocity           k       omega     time/iter
   386  3.2821e-03  3.1213e-05  9.3958e-06  9.6864e-04  2.1299e-04  0:03:41 1614
   387  3.2632e-03  3.1136e-05  9.3493e-06  9.6147e-04  2.1136e-04  0:02:57 1613
   388  3.2390e-03  3.1047e-05  9.3031e-06  9.5446e-04  2.0972e-04  0:02:21 1612
   389  3.2229e-03  3.0953e-05  9.2572e-06  9.4739e-04  2.0809e-04  0:01:53 1611
   390  3.2040e-03  3.0864e-05  9.2168e-06  9.4055e-04  2.0651e-04  0:06:52 1610
   391  3.1930e-03  3.0779e-05  9.1768e-06  9.3386e-04  2.0493e-04  0:05:30 1609
   392  3.1846e-03  3.0695e-05  9.1294e-06  9.2725e-04  2.0332e-04  0:04:24 1608
   393  3.1633e-03  3.0604e-05  9.0757e-06  9.2087e-04  2.0172e-04  0:03:31 1607
   394  3.1382e-03  3.0513e-05  9.0139e-06  9.1435e-04  2.0008e-04  0:02:48 1606
   395  3.1100e-03  3.0425e-05  8.9598e-06  9.0783e-04  1.9845e-04  0:02:15 1605
   396  3.0896e-03  3.0347e-05  8.9012e-06  9.0153e-04  1.9686e-04  0:07:08 1604

  iter  continuity  x-velocity  y-velocity           k       omega     time/iter
   397  3.0670e-03  3.0271e-05  8.8403e-06  8.9511e-04  1.9530e-04  0:05:43 1603
   398  3.0410e-03  3.0199e-05  8.7791e-06  8.8890e-04  1.9376e-04  0:04:34 1602
   399  3.0121e-03  3.0125e-05  8.7195e-06  8.8257e-04  1.9224e-04  0:03:39 1601
   400  2.9774e-03  3.0057e-05  8.6566e-06  8.7645e-04  1.9071e-04  0:02:55 1600
   401  2.9577e-03  2.9986e-05  8.5911e-06  8.7048e-04  1.8919e-04  0:07:40 1599
   402  2.9304e-03  2.9904e-05  8.5323e-06  8.6490e-04  1.8766e-04  0:06:08 1598
   403  2.8949e-03  2.9813e-05  8.4667e-06  8.5922e-04  1.8616e-04  0:04:54 1597
   404  2.8646e-03  2.9723e-05  8.4033e-06  8.5387e-04  1.8472e-04  0:03:55 1596
   405  2.8447e-03  2.9642e-05  8.3379e-06  8.4829e-04  1.8331e-04  0:03:08 1595
   406  2.8255e-03  2.9560e-05  8.2757e-06  8.4285e-04  1.8191e-04  0:02:30 1594
   407  2.8042e-03  2.9479e-05  8.2095e-06  8.3745e-04  1.8051e-04  0:07:19 1593

  iter  continuity  x-velocity  y-velocity           k       omega     time/iter
   408  2.7921e-03  2.9399e-05  8.1474e-06  8.3164e-04  1.7917e-04  0:05:51 1592
   409  2.7818e-03  2.9307e-05  8.0872e-06  8.2592e-04  1.7782e-04  0:04:40 1591
   410  2.7646e-03  2.9210e-05  8.0273e-06  8.2010e-04  1.7651e-04  0:03:44 1590
   411  2.7374e-03  2.9109e-05  7.9699e-06  8.1457e-04  1.7520e-04  0:02:59 1589
   412  2.7243e-03  2.9016e-05  7.9147e-06  8.0917e-04  1.7388e-04  0:02:23 1588
   413  2.7186e-03  2.8927e-05  7.8626e-06  8.0387e-04  1.7258e-04  0:01:55 1587
   414  2.7199e-03  2.8837e-05  7.8149e-06  7.9870e-04  1.7134e-04  0:06:49 1586
   415  2.7111e-03  2.8752e-05  7.7693e-06  7.9359e-04  1.7012e-04  0:05:27 1585
   416  2.7018e-03  2.8661e-05  7.7174e-06  7.8847e-04  1.6888e-04  0:04:21 1584
   417  2.7080e-03  2.8570e-05  7.6694e-06  7.8340e-04  1.6765e-04  0:03:29 1583
   418  2.7187e-03  2.8473e-05  7.6195e-06  7.7854e-04  1.6641e-04  0:02:47 1582

  iter  continuity  x-velocity  y-velocity           k       omega     time/iter
   419  2.7381e-03  2.8373e-05  7.5672e-06  7.7373e-04  1.6522e-04  0:02:14 1581
   420  2.7615e-03  2.8275e-05  7.5154e-06  7.6884e-04  1.6401e-04  0:07:03 1580
   421  2.7784e-03  2.8173e-05  7.4638e-06  7.6407e-04  1.6288e-04  0:05:38 1579
   422  2.7900e-03  2.8072e-05  7.4084e-06  7.5939e-04  1.6174e-04  0:04:30 1578
   423  2.7886e-03  2.7971e-05  7.3500e-06  7.5442e-04  1.6063e-04  0:03:36 1577
   424  2.7889e-03  2.7866e-05  7.2962e-06  7.4959e-04  1.5954e-04  0:02:53 1576
   425  2.7630e-03  2.7761e-05  7.2333e-06  7.4472e-04  1.5847e-04  0:02:18 1575
   426  2.7515e-03  2.7652e-05  7.1682e-06  7.3995e-04  1.5735e-04  0:07:05 1574
   427  2.7387e-03  2.7540e-05  7.1023e-06  7.3527e-04  1.5630e-04  0:05:40 1573
   428  2.7103e-03  2.7417e-05  7.0333e-06  7.3052e-04  1.5523e-04  0:04:32 1572
   429  2.6686e-03  2.7292e-05  6.9608e-06  7.2608e-04  1.5417e-04  0:03:37 1571

  iter  continuity  x-velocity  y-velocity           k       omega     time/iter
   430  2.6504e-03  2.7172e-05  6.8837e-06  7.2155e-04  1.5314e-04  0:02:54 1570
   431  2.6661e-03  2.7084e-05  6.8092e-06  7.1718e-04  1.5210e-04  0:02:19 1569
   432  2.6393e-03  2.6966e-05  6.7423e-06  7.1290e-04  1.5110e-04  0:01:51 1568
   433  2.6551e-03  2.6907e-05  6.6722e-06  7.0860e-04  1.5016e-04  0:06:42 1567
   434  2.6731e-03  2.6836e-05  6.6092e-06  7.0418e-04  1.4918e-04  0:05:22 1566
   435  2.6522e-03  2.6736e-05  6.5488e-06  6.9975e-04  1.4822e-04  0:04:17 1565
   436  2.6513e-03  2.6638e-05  6.4792e-06  6.9545e-04  1.4726e-04  0:03:26 1564
   437  2.6619e-03  2.6541e-05  6.4091e-06  6.9118e-04  1.4632e-04  0:02:44 1563
   438  2.6712e-03  2.6452e-05  6.3393e-06  6.8690e-04  1.4539e-04  0:02:11 1562
   439  2.6666e-03  2.6378e-05  6.2788e-06  6.8273e-04  1.4444e-04  0:01:45 1561
   440  2.6671e-03  2.6303e-05  6.2204e-06  6.7860e-04  1.4352e-04  0:06:36 1560

  iter  continuity  x-velocity  y-velocity           k       omega     time/iter
   441  2.6750e-03  2.6213e-05  6.1660e-06  6.7457e-04  1.4262e-04  0:05:17 1559
   442  2.6718e-03  2.6096e-05  6.1092e-06  6.7056e-04  1.4165e-04  0:04:13 1558
   443  2.6602e-03  2.5961e-05  6.0553e-06  6.6651e-04  1.4076e-04  0:03:22 1557
   444  2.6241e-03  2.5827e-05  6.0003e-06  6.6251e-04  1.3986e-04  0:02:42 1556
   445  2.5859e-03  2.5707e-05  5.9319e-06  6.5858e-04  1.3892e-04  0:02:09 1555
   446  2.5415e-03  2.5589e-05  5.8593e-06  6.5471e-04  1.3803e-04  0:06:54 1554
   447  2.5281e-03  2.5462e-05  5.7873e-06  6.5081e-04  1.3713e-04  0:05:31 1553
   448  2.5059e-03  2.5353e-05  5.7247e-06  6.4703e-04  1.3626e-04  0:04:25 1552
   449  2.4728e-03  2.5223e-05  5.6646e-06  6.4335e-04  1.3540e-04  0:03:32 1551
   450  2.4415e-03  2.5122e-05  5.5947e-06  6.3964e-04  1.3453e-04  0:07:59 1550
   451  2.3926e-03  2.4989e-05  5.5305e-06  6.3595e-04  1.3365e-04  0:06:23 1549

  iter  continuity  x-velocity  y-velocity           k       omega     time/iter
   452  2.3655e-03  2.4887e-05  5.4644e-06  6.3234e-04  1.3280e-04  0:05:06 1548
   453  2.3318e-03  2.4779e-05  5.3985e-06  6.2868e-04  1.3194e-04  0:04:05 1547
   454  2.2973e-03  2.4664e-05  5.3359e-06  6.2511e-04  1.3109e-04  0:03:16 1546
   455  2.2501e-03  2.4553e-05  5.2716e-06  6.2146e-04  1.3027e-04  0:02:37 1545
   456  2.2100e-03  2.4445e-05  5.2065e-06  6.1785e-04  1.2946e-04  0:02:05 1544
   457  2.1889e-03  2.4332e-05  5.1440e-06  6.1429e-04  1.2863e-04  0:06:49 1543
   458  2.1686e-03  2.4223e-05  5.0833e-06  6.1077e-04  1.2780e-04  0:05:27 1542
   459  2.1433e-03  2.4119e-05  5.0248e-06  6.0729e-04  1.2696e-04  0:04:21 1541
   460  2.1125e-03  2.4021e-05  4.9659e-06  6.0386e-04  1.2614e-04  0:03:29 1540
   461  2.0829e-03  2.3922e-05  4.9072e-06  6.0045e-04  1.2532e-04  0:02:47 1539
   462  2.0577e-03  2.3824e-05  4.8472e-06  5.9710e-04  1.2451e-04  0:02:13 1538

  iter  continuity  x-velocity  y-velocity           k       omega     time/iter
   463  2.0381e-03  2.3728e-05  4.7898e-06  5.9379e-04  1.2371e-04  0:06:54 1537
   464  2.0233e-03  2.3633e-05  4.7355e-06  5.9052e-04  1.2292e-04  0:05:31 1536
   465  2.0103e-03  2.3540e-05  4.6829e-06  5.8727e-04  1.2214e-04  0:04:25 1535
   466  1.9971e-03  2.3452e-05  4.6295e-06  5.8406e-04  1.2137e-04  0:03:32 1534
   467  1.9879e-03  2.3370e-05  4.5800e-06  5.8088e-04  1.2062e-04  0:02:49 1533
   468  1.9784e-03  2.3287e-05  4.5307e-06  5.7773e-04  1.1988e-04  0:02:15 1532
   469  1.9622e-03  2.3199e-05  4.4830e-06  5.7464e-04  1.1914e-04  0:01:48 1531
   470  1.9509e-03  2.3109e-05  4.4374e-06  5.7156e-04  1.1841e-04  0:06:32 1530
   471  1.9404e-03  2.3021e-05  4.3882e-06  5.6850e-04  1.1768e-04  0:05:14 1529
   472  1.9224e-03  2.2938e-05  4.3388e-06  5.6546e-04  1.1696e-04  0:04:11 1528
   473  1.9019e-03  2.2842e-05  4.2950e-06  5.6245e-04  1.1626e-04  0:03:21 1527

  iter  continuity  x-velocity  y-velocity           k       omega     time/iter
   474  1.8925e-03  2.2752e-05  4.2526e-06  5.5947e-04  1.1554e-04  0:02:40 1526
   475  1.8799e-03  2.2662e-05  4.2105e-06  5.5651e-04  1.1484e-04  0:02:08 1525
   476  1.8629e-03  2.2570e-05  4.1669e-06  5.5359e-04  1.1416e-04  0:06:47 1524
   477  1.8367e-03  2.2482e-05  4.1219e-06  5.5068e-04  1.1349e-04  0:05:26 1523
   478  1.8120e-03  2.2402e-05  4.0755e-06  5.4779e-04  1.1282e-04  0:04:20 1522
   479  1.7948e-03  2.2324e-05  4.0351e-06  5.4493e-04  1.1216e-04  0:03:28 1521
   480  1.7815e-03  2.2250e-05  3.9952e-06  5.4211e-04  1.1151e-04  0:02:46 1520
   481  1.7699e-03  2.2176e-05  3.9594e-06  5.3928e-04  1.1086e-04  0:02:13 1519
   482  1.7520e-03  2.2101e-05  3.9245e-06  5.3649e-04  1.1022e-04  0:01:46 1518
   483  1.7402e-03  2.2029e-05  3.8914e-06  5.3371e-04  1.0959e-04  0:06:28 1517
   484  1.7255e-03  2.1961e-05  3.8582e-06  5.3096e-04  1.0896e-04  0:05:11 1516

  iter  continuity  x-velocity  y-velocity           k       omega     time/iter
   485  1.7107e-03  2.1896e-05  3.8228e-06  5.2824e-04  1.0834e-04  0:04:08 1515
   486  1.7019e-03  2.1832e-05  3.7903e-06  5.2553e-04  1.0774e-04  0:03:18 1514
   487  1.6915e-03  2.1764e-05  3.7624e-06  5.2285e-04  1.0714e-04  0:02:39 1513
   488  1.6780e-03  2.1689e-05  3.7287e-06  5.2020e-04  1.0655e-04  0:02:07 1512
   489  1.6611e-03  2.1615e-05  3.6952e-06  5.1756e-04  1.0597e-04  0:06:44 1511
   490  1.6355e-03  2.1541e-05  3.6605e-06  5.1496e-04  1.0539e-04  0:05:23 1510
   491  1.6100e-03  2.1466e-05  3.6284e-06  5.1238e-04  1.0483e-04  0:04:18 1509
   492  1.5848e-03  2.1390e-05  3.6004e-06  5.0981e-04  1.0427e-04  0:03:26 1508
   493  1.5542e-03  2.1317e-05  3.5712e-06  5.0727e-04  1.0371e-04  0:07:46 1507
   494  1.5261e-03  2.1245e-05  3.5434e-06  5.0476e-04  1.0317e-04  0:06:13 1506
   495  1.4982e-03  2.1171e-05  3.5168e-06  5.0226e-04  1.0262e-04  0:04:58 1505

  iter  continuity  x-velocity  y-velocity           k       omega     time/iter
   496  1.4712e-03  2.1099e-05  3.4879e-06  4.9980e-04  1.0208e-04  0:03:58 1504
   497  1.4443e-03  2.1028e-05  3.4590e-06  4.9733e-04  1.0155e-04  0:03:10 1503
   498  1.4143e-03  2.0957e-05  3.4314e-06  4.9491e-04  1.0103e-04  0:02:32 1502
   499  1.3882e-03  2.0887e-05  3.4047e-06  4.9251e-04  1.0051e-04  0:02:02 1501
   500  1.3654e-03  2.0819e-05  3.3773e-06  4.9013e-04  1.0000e-04  0:06:37 1500
   501  1.3444e-03  2.0749e-05  3.3511e-06  4.8777e-04  9.9506e-05  0:05:18 1499
   502  1.3252e-03  2.0680e-05  3.3250e-06  4.8541e-04  9.9020e-05  0:04:14 1498
   503  1.3047e-03  2.0609e-05  3.2995e-06  4.8308e-04  9.8523e-05  0:03:23 1497
   504  1.2840e-03  2.0536e-05  3.2744e-06  4.8076e-04  9.8044e-05  0:02:42 1496
   505  1.2654e-03  2.0465e-05  3.2503e-06  4.7846e-04  9.7558e-05  0:02:10 1495
   506  1.2483e-03  2.0395e-05  3.2274e-06  4.7619e-04  9.7083e-05  0:06:43 1494

  iter  continuity  x-velocity  y-velocity           k       omega     time/iter
   507  1.2314e-03  2.0324e-05  3.2047e-06  4.7395e-04  9.6616e-05  0:05:22 1493
   508  1.2199e-03  2.0255e-05  3.1827e-06  4.7170e-04  9.6154e-05  0:04:17 1492
   509  1.2049e-03  2.0188e-05  3.1602e-06  4.6949e-04  9.5699e-05  0:03:26 1491
   510  1.1891e-03  2.0120e-05  3.1369e-06  4.6728e-04  9.5260e-05  0:02:44 1490
   511  1.1753e-03  2.0050e-05  3.1156e-06  4.6511e-04  9.4821e-05  0:02:11 1489
   512  1.1608e-03  1.9980e-05  3.0923e-06  4.6295e-04  9.4390e-05  0:01:45 1488
   513  1.1484e-03  1.9910e-05  3.0690e-06  4.6080e-04  9.3958e-05  0:06:21 1487
   514  1.1362e-03  1.9842e-05  3.0455e-06  4.5868e-04  9.3533e-05  0:05:05 1486
   515  1.1238e-03  1.9775e-05  3.0203e-06  4.5657e-04  9.3111e-05  0:04:04 1485
   516  1.1127e-03  1.9708e-05  2.9960e-06  4.5448e-04  9.2696e-05  0:03:15 1484
   517  1.1007e-03  1.9645e-05  2.9702e-06  4.5241e-04  9.2278e-05  0:02:36 1483

  iter  continuity  x-velocity  y-velocity           k       omega     time/iter
   518  1.0880e-03  1.9584e-05  2.9463e-06  4.5037e-04  9.1864e-05  0:02:05 1482
   519  1.0785e-03  1.9526e-05  2.9212e-06  4.4833e-04  9.1458e-05  0:06:36 1481
   520  1.0664e-03  1.9470e-05  2.8952e-06  4.4631e-04  9.1065e-05  0:05:16 1480
   521  1.0600e-03  1.9415e-05  2.8701e-06  4.4432e-04  9.0676e-05  0:04:13 1479
   522  1.0483e-03  1.9361e-05  2.8444e-06  4.4234e-04  9.0301e-05  0:03:22 1478
   523  1.0424e-03  1.9309e-05  2.8208e-06  4.4039e-04  8.9928e-05  0:02:42 1477
   524  1.0364e-03  1.9260e-05  2.7950e-06  4.3845e-04  8.9559e-05  0:02:09 1476
   525  1.0306e-03  1.9212e-05  2.7715e-06  4.3654e-04  8.9197e-05  0:01:43 1475
   526  1.0235e-03  1.9165e-05  2.7482e-06  4.3463e-04  8.8847e-05  0:06:17 1474
   527  1.0181e-03  1.9120e-05  2.7247e-06  4.3273e-04  8.8499e-05  0:05:02 1473
   528  1.0121e-03  1.9078e-05  2.7012e-06  4.3085e-04  8.8155e-05  0:04:01 1472

  iter  continuity  x-velocity  y-velocity           k       omega     time/iter
   529  1.0052e-03  1.9038e-05  2.6797e-06  4.2899e-04  8.7814e-05  0:03:13 1471
   530  1.0021e-03  1.8997e-05  2.6583e-06  4.2713e-04  8.7478e-05  0:02:34 1470
   531  9.9927e-04  1.8957e-05  2.6392e-06  4.2529e-04  8.7146e-05  0:02:03 1469
   532  9.9844e-04  1.8917e-05  2.6183e-06  4.2347e-04  8.6820e-05  0:06:32 1468
   533  9.9581e-04  1.8879e-05  2.5945e-06  4.2165e-04  8.6495e-05  0:05:13 1467
   534  9.9018e-04  1.8842e-05  2.5727e-06  4.1985e-04  8.6176e-05  0:04:11 1466
   535  9.8646e-04  1.8803e-05  2.5533e-06  4.1807e-04  8.5855e-05  0:03:20 1465
   536  9.8237e-04  1.8764e-05  2.5344e-06  4.1629e-04  8.5548e-05  0:02:40 1464
   537  9.7450e-04  1.8726e-05  2.5178e-06  4.1454e-04  8.5246e-05  0:02:08 1463
   538  9.7030e-04  1.8686e-05  2.5022e-06  4.1279e-04  8.4942e-05  0:06:35 1462
   539  9.6544e-04  1.8648e-05  2.4867e-06  4.1105e-04  8.4645e-05  0:05:16 1461

  iter  continuity  x-velocity  y-velocity           k       omega     time/iter
   540  9.6289e-04  1.8611e-05  2.4725e-06  4.0931e-04  8.4345e-05  0:04:12 1460
   541  9.5686e-04  1.8572e-05  2.4608e-06  4.0759e-04  8.4055e-05  0:03:22 1459
   542  9.4686e-04  1.8533e-05  2.4473e-06  4.0587e-04  8.3760e-05  0:02:41 1458
   543  9.3586e-04  1.8495e-05  2.4346e-06  4.0417e-04  8.3475e-05  0:02:09 1457
   544  9.2764e-04  1.8458e-05  2.4245e-06  4.0248e-04  8.3179e-05  0:06:34 1456
   545  9.2328e-04  1.8422e-05  2.4157e-06  4.0081e-04  8.2895e-05  0:05:15 1455
   546  9.2003e-04  1.8386e-05  2.4079e-06  3.9914e-04  8.2612e-05  0:04:12 1454
   547  9.1710e-04  1.8352e-05  2.4014e-06  3.9748e-04  8.2335e-05  0:03:21 1453
   548  9.1360e-04  1.8317e-05  2.3970e-06  3.9583e-04  8.2059e-05  0:02:41 1452
   549  9.0885e-04  1.8283e-05  2.3953e-06  3.9420e-04  8.1789e-05  0:02:09 1451
   550  9.0143e-04  1.8249e-05  2.3940e-06  3.9258e-04  8.1518e-05  0:06:33 1450

  iter  continuity  x-velocity  y-velocity           k       omega     time/iter
   551  8.9762e-04  1.8215e-05  2.3940e-06  3.9096e-04  8.1246e-05  0:05:14 1449
   552  8.9399e-04  1.8181e-05  2.3941e-06  3.8934e-04  8.0971e-05  0:04:11 1448
   553  8.9077e-04  1.8147e-05  2.3931e-06  3.8774e-04  8.0694e-05  0:03:21 1447
   554  8.8447e-04  1.8112e-05  2.3928e-06  3.8614e-04  8.0413e-05  0:02:40 1446
   555  8.8213e-04  1.8078e-05  2.3921e-06  3.8455e-04  8.0136e-05  0:02:08 1445
   556  8.7665e-04  1.8043e-05  2.3919e-06  3.8297e-04  7.9872e-05  0:06:31 1444
   557  8.7057e-04  1.8009e-05  2.3923e-06  3.8140e-04  7.9613e-05  0:05:13 1443
   558  8.6608e-04  1.7975e-05  2.3925e-06  3.7983e-04  7.9342e-05  0:04:10 1442
   559  8.5990e-04  1.7941e-05  2.3937e-06  3.7828e-04  7.9073e-05  0:03:20 1441
   560  8.5530e-04  1.7905e-05  2.3945e-06  3.7674e-04  7.8815e-05  0:02:40 1440
   561  8.5157e-04  1.7871e-05  2.3943e-06  3.7520e-04  7.8560e-05  0:02:08 1439

  iter  continuity  x-velocity  y-velocity           k       omega     time/iter
   562  8.4799e-04  1.7836e-05  2.3942e-06  3.7368e-04  7.8305e-05  0:06:30 1438
   563  8.4401e-04  1.7801e-05  2.3953e-06  3.7216e-04  7.8054e-05  0:05:12 1437
   564  8.4373e-04  1.7766e-05  2.3964e-06  3.7066e-04  7.7806e-05  0:04:09 1436
   565  8.4307e-04  1.7732e-05  2.3974e-06  3.6918e-04  7.7560e-05  0:03:19 1435
   566  8.4080e-04  1.7696e-05  2.3986e-06  3.6770e-04  7.7316e-05  0:02:39 1434
   567  8.4135e-04  1.7662e-05  2.3994e-06  3.6622e-04  7.7069e-05  0:02:07 1433
   568  8.4221e-04  1.7628e-05  2.4001e-06  3.6476e-04  7.6829e-05  0:01:42 1432
   569  8.4226e-04  1.7593e-05  2.4000e-06  3.6330e-04  7.6589e-05  0:06:08 1431
   570  8.4183e-04  1.7558e-05  2.4008e-06  3.6186e-04  7.6351e-05  0:04:54 1430
   571  8.4575e-04  1.7525e-05  2.4018e-06  3.6043e-04  7.6112e-05  0:03:55 1429
   572  8.4472e-04  1.7491e-05  2.4025e-06  3.5900e-04  7.5879e-05  0:03:08 1428

  iter  continuity  x-velocity  y-velocity           k       omega     time/iter
   573  8.4344e-04  1.7459e-05  2.4024e-06  3.5758e-04  7.5645e-05  0:02:30 1427
   574  8.4231e-04  1.7425e-05  2.4015e-06  3.5618e-04  7.5417e-05  0:02:00 1426
   575  8.4431e-04  1.7392e-05  2.4011e-06  3.5478e-04  7.5193e-05  0:06:21 1425
   576  8.4663e-04  1.7359e-05  2.3995e-06  3.5339e-04  7.4968e-05  0:05:05 1424
   577  8.4787e-04  1.7325e-05  2.3982e-06  3.5201e-04  7.4747e-05  0:04:03 1423
   578  8.4955e-04  1.7291e-05  2.3967e-06  3.5065e-04  7.4526e-05  0:03:15 1422
   579  8.4881e-04  1.7258e-05  2.3945e-06  3.4929e-04  7.4307e-05  0:02:36 1421
   580  8.4932e-04  1.7224e-05  2.3913e-06  3.4794e-04  7.4091e-05  0:02:04 1420
   581  8.4873e-04  1.7191e-05  2.3882e-06  3.4660e-04  7.3880e-05  0:01:39 1419
   582  8.5109e-04  1.7158e-05  2.3857e-06  3.4527e-04  7.3673e-05  0:06:03 1418
   583  8.4930e-04  1.7123e-05  2.3823e-06  3.4396e-04  7.3469e-05  0:04:50 1417

  iter  continuity  x-velocity  y-velocity           k       omega     time/iter
   584  8.4716e-04  1.7091e-05  2.3765e-06  3.4264e-04  7.3267e-05  0:03:52 1416
   585  8.4647e-04  1.7058e-05  2.3716e-06  3.4134e-04  7.3069e-05  0:03:06 1415
   586  8.4734e-04  1.7025e-05  2.3661e-06  3.4005e-04  7.2873e-05  0:07:11 1414
   587  8.4952e-04  1.6993e-05  2.3617e-06  3.3876e-04  7.2681e-05  0:05:45 1413
   588  8.5048e-04  1.6961e-05  2.3573e-06  3.3749e-04  7.2490e-05  0:04:36 1412
   589  8.4984e-04  1.6928e-05  2.3514e-06  3.3623e-04  7.2300e-05  0:03:40 1411
   590  8.5094e-04  1.6896e-05  2.3460e-06  3.3497e-04  7.2110e-05  0:02:56 1410
   591  8.5261e-04  1.6863e-05  2.3391e-06  3.3372e-04  7.1928e-05  0:02:21 1409
   592  8.4372e-04  1.6832e-05  2.3314e-06  3.3248e-04  7.1746e-05  0:01:53 1408
   593  8.3970e-04  1.6801e-05  2.3233e-06  3.3124e-04  7.1570e-05  0:06:11 1407
   594  8.2928e-04  1.6769e-05  2.3154e-06  3.3002e-04  7.1399e-05  0:04:57 1406

  iter  continuity  x-velocity  y-velocity           k       omega     time/iter
   595  8.1992e-04  1.6739e-05  2.3066e-06  3.2880e-04  7.1227e-05  0:03:57 1405
   596  8.1160e-04  1.6706e-05  2.2969e-06  3.2760e-04  7.1060e-05  0:03:10 1404
   597  8.0502e-04  1.6675e-05  2.2868e-06  3.2640e-04  7.0891e-05  0:02:32 1403
   598  8.0234e-04  1.6644e-05  2.2759e-06  3.2521e-04  7.0726e-05  0:02:01 1402
   599  7.9839e-04  1.6614e-05  2.2656e-06  3.2402e-04  7.0560e-05  0:06:17 1401
   600  7.9311e-04  1.6585e-05  2.2547e-06  3.2285e-04  7.0400e-05  0:05:01 1400
   601  7.9401e-04  1.6555e-05  2.2454e-06  3.2167e-04  7.0241e-05  0:04:01 1399
   602  7.9080e-04  1.6527e-05  2.2347e-06  3.2050e-04  7.0083e-05  0:03:13 1398
   603  7.8527e-04  1.6498e-05  2.2255e-06  3.1934e-04  6.9931e-05  0:02:34 1397
   604  7.8315e-04  1.6469e-05  2.2163e-06  3.1820e-04  6.9778e-05  0:02:03 1396
   605  7.8146e-04  1.6441e-05  2.2055e-06  3.1705e-04  6.9636e-05  0:06:17 1395

  iter  continuity  x-velocity  y-velocity           k       omega     time/iter
   606  7.8090e-04  1.6414e-05  2.1959e-06  3.1592e-04  6.9487e-05  0:05:02 1394
   607  7.8046e-04  1.6388e-05  2.1856e-06  3.1480e-04  6.9351e-05  0:04:01 1393
   608  7.7648e-04  1.6361e-05  2.1769e-06  3.1368e-04  6.9211e-05  0:03:13 1392
   609  7.7157e-04  1.6333e-05  2.1672e-06  3.1256e-04  6.9076e-05  0:02:34 1391
   610  7.6818e-04  1.6306e-05  2.1573e-06  3.1145e-04  6.8935e-05  0:02:03 1390
   611  7.5738e-04  1.6278e-05  2.1474e-06  3.1035e-04  6.8786e-05  0:01:39 1389
   612  7.5126e-04  1.6250e-05  2.1386e-06  3.0924e-04  6.8633e-05  0:05:56 1388
   613  7.4655e-04  1.6224e-05  2.1295e-06  3.0815e-04  6.8485e-05  0:04:45 1387
   614  7.4080e-04  1.6200e-05  2.1196e-06  3.0707e-04  6.8340e-05  0:03:48 1386
   615  7.3808e-04  1.6178e-05  2.1106e-06  3.0599e-04  6.8197e-05  0:03:02 1385
   616  7.3133e-04  1.6154e-05  2.1000e-06  3.0492e-04  6.8056e-05  0:02:26 1384

  iter  continuity  x-velocity  y-velocity           k       omega     time/iter
   617  7.2746e-04  1.6131e-05  2.0893e-06  3.0385e-04  6.7914e-05  0:01:56 1383
   618  7.2469e-04  1.6110e-05  2.0791e-06  3.0279e-04  6.7774e-05  0:06:09 1382
   619  7.2083e-04  1.6085e-05  2.0702e-06  3.0173e-04  6.7635e-05  0:04:55 1381
   620  7.1499e-04  1.6059e-05  2.0611e-06  3.0068e-04  6.7494e-05  0:03:56 1380
   621  7.1109e-04  1.6035e-05  2.0514e-06  2.9964e-04  6.7350e-05  0:03:09 1379
   622  7.0178e-04  1.6009e-05  2.0419e-06  2.9860e-04  6.7207e-05  0:02:31 1378
   623  6.9332e-04  1.5985e-05  2.0313e-06  2.9757e-04  6.7066e-05  0:02:01 1377
   624  6.8776e-04  1.5959e-05  2.0211e-06  2.9655e-04  6.6922e-05  0:01:36 1376
   625  6.7782e-04  1.5934e-05  2.0108e-06  2.9553e-04  6.6788e-05  0:05:52 1375
   626  6.7089e-04  1.5912e-05  2.0003e-06  2.9452e-04  6.6652e-05  0:04:41 1374
   627  6.6284e-04  1.5890e-05  1.9889e-06  2.9351e-04  6.6527e-05  0:03:45 1373

  iter  continuity  x-velocity  y-velocity           k       omega     time/iter
   628  6.5579e-04  1.5866e-05  1.9792e-06  2.9252e-04  6.6392e-05  0:03:00 1372
   629  6.5037e-04  1.5844e-05  1.9695e-06  2.9153e-04  6.6271e-05  0:06:58 1371
   630  6.4717e-04  1.5823e-05  1.9589e-06  2.9056e-04  6.6142e-05  0:05:34 1370
   631  6.4528e-04  1.5801e-05  1.9478e-06  2.8959e-04  6.6024e-05  0:04:27 1369
   632  6.4430e-04  1.5782e-05  1.9367e-06  2.8862e-04  6.5901e-05  0:03:34 1368
   633  6.4117e-04  1.5762e-05  1.9278e-06  2.8766e-04  6.5787e-05  0:02:51 1367
   634  6.4052e-04  1.5740e-05  1.9196e-06  2.8672e-04  6.5668e-05  0:02:16 1366
   635  6.3889e-04  1.5720e-05  1.9093e-06  2.8578e-04  6.5557e-05  0:01:49 1365
   636  6.3549e-04  1.5699e-05  1.9014e-06  2.8485e-04  6.5440e-05  0:06:00 1364
   637  6.3125e-04  1.5678e-05  1.8912e-06  2.8392e-04  6.5331e-05  0:04:48 1363
   638  6.2601e-04  1.5658e-05  1.8822e-06  2.8300e-04  6.5214e-05  0:03:50 1362

  iter  continuity  x-velocity  y-velocity           k       omega     time/iter
   639  6.2025e-04  1.5638e-05  1.8728e-06  2.8209e-04  6.5110e-05  0:03:04 1361
   640  6.1500e-04  1.5618e-05  1.8643e-06  2.8118e-04  6.4998e-05  0:02:27 1360
   641  6.1004e-04  1.5600e-05  1.8546e-06  2.8028e-04  6.4895e-05  0:01:58 1359
   642  6.0706e-04  1.5582e-05  1.8446e-06  2.7939e-04  6.4785e-05  0:06:06 1358
   643  6.0342e-04  1.5562e-05  1.8357e-06  2.7850e-04  6.4682e-05  0:04:52 1357
   644  5.9955e-04  1.5543e-05  1.8264e-06  2.7762e-04  6.4573e-05  0:03:54 1356
   645  5.9538e-04  1.5527e-05  1.8161e-06  2.7674e-04  6.4471e-05  0:03:07 1355
   646  5.9011e-04  1.5509e-05  1.8075e-06  2.7587e-04  6.4365e-05  0:02:29 1354
   647  5.8827e-04  1.5493e-05  1.7986e-06  2.7500e-04  6.4269e-05  0:01:59 1353
   648  5.8388e-04  1.5476e-05  1.7896e-06  2.7413e-04  6.4165e-05  0:06:06 1352
   649  5.7890e-04  1.5459e-05  1.7807e-06  2.7327e-04  6.4070e-05  0:04:52 1351

  iter  continuity  x-velocity  y-velocity           k       omega     time/iter
   650  5.7644e-04  1.5442e-05  1.7714e-06  2.7241e-04  6.3965e-05  0:03:54 1350
   651  5.7099e-04  1.5424e-05  1.7632e-06  2.7155e-04  6.3870e-05  0:03:07 1349
   652  5.7055e-04  1.5408e-05  1.7542e-06  2.7070e-04  6.3770e-05  0:02:29 1348
   653  5.6507e-04  1.5390e-05  1.7464e-06  2.6986e-04  6.3674e-05  0:01:59 1347
   654  5.6111e-04  1.5374e-05  1.7381e-06  2.6902e-04  6.3576e-05  0:01:35 1346
   655  5.5976e-04  1.5358e-05  1.7303e-06  2.6818e-04  6.3484e-05  0:05:45 1345
   656  5.5585e-04  1.5343e-05  1.7228e-06  2.6735e-04  6.3389e-05  0:04:36 1344
   657  5.5349e-04  1.5327e-05  1.7155e-06  2.6653e-04  6.3301e-05  0:03:41 1343
   658  5.4868e-04  1.5313e-05  1.7072e-06  2.6571e-04  6.3210e-05  0:02:56 1342
   659  5.4511e-04  1.5299e-05  1.6995e-06  2.6489e-04  6.3127e-05  0:02:21 1341
   660  5.3836e-04  1.5284e-05  1.6910e-06  2.6408e-04  6.3038e-05  0:01:53 1340

  iter  continuity  x-velocity  y-velocity           k       omega     time/iter
   661  5.3404e-04  1.5269e-05  1.6835e-06  2.6328e-04  6.2952e-05  0:05:58 1339
   662  5.3103e-04  1.5255e-05  1.6755e-06  2.6247e-04  6.2864e-05  0:04:46 1338
   663  5.2491e-04  1.5242e-05  1.6676e-06  2.6168e-04  6.2779e-05  0:03:49 1337
   664  5.2017e-04  1.5228e-05  1.6605e-06  2.6089e-04  6.2693e-05  0:03:03 1336
   665  5.1680e-04  1.5215e-05  1.6541e-06  2.6010e-04  6.2609e-05  0:02:26 1335
   666  5.1537e-04  1.5200e-05  1.6471e-06  2.5932e-04  6.2530e-05  0:01:57 1334
   667  5.1329e-04  1.5187e-05  1.6405e-06  2.5854e-04  6.2456e-05  0:01:33 1333
   668  5.0994e-04  1.5174e-05  1.6340e-06  2.5777e-04  6.2381e-05  0:05:41 1332
   669  5.0890e-04  1.5162e-05  1.6278e-06  2.5700e-04  6.2304e-05  0:04:33 1331
   670  5.0803e-04  1.5148e-05  1.6215e-06  2.5623e-04  6.2225e-05  0:03:38 1330
   671  5.0615e-04  1.5135e-05  1.6155e-06  2.5547e-04  6.2146e-05  0:02:54 1329

  iter  continuity  x-velocity  y-velocity           k       omega     time/iter
   672  5.0604e-04  1.5123e-05  1.6078e-06  2.5472e-04  6.2067e-05  0:02:19 1328
   673  5.0611e-04  1.5110e-05  1.6025e-06  2.5397e-04  6.1989e-05  0:01:51 1327
   674  5.0549e-04  1.5099e-05  1.5964e-06  2.5322e-04  6.1911e-05  0:05:54 1326
   675  5.0646e-04  1.5088e-05  1.5903e-06  2.5248e-04  6.1834e-05  0:04:43 1325
   676  5.0672e-04  1.5076e-05  1.5844e-06  2.5174e-04  6.1759e-05  0:03:46 1324
   677  5.0589e-04  1.5064e-05  1.5802e-06  2.5100e-04  6.1687e-05  0:03:01 1323
   678  5.0421e-04  1.5053e-05  1.5749e-06  2.5027e-04  6.1612e-05  0:02:25 1322
   679  5.0356e-04  1.5042e-05  1.5696e-06  2.4954e-04  6.1538e-05  0:06:20 1321
   680  5.0300e-04  1.5030e-05  1.5637e-06  2.4881e-04  6.1460e-05  0:05:04 1320
   681  5.0187e-04  1.5018e-05  1.5583e-06  2.4809e-04  6.1378e-05  0:04:03 1319
   682  5.0191e-04  1.5005e-05  1.5536e-06  2.4737e-04  6.1295e-05  0:03:14 1318

  iter  continuity  x-velocity  y-velocity           k       omega     time/iter
   683  5.0057e-04  1.4991e-05  1.5493e-06  2.4665e-04  6.1211e-05  0:02:35 1317
   684  5.0087e-04  1.4978e-05  1.5437e-06  2.4594e-04  6.1128e-05  0:02:04 1316
   685  4.9980e-04  1.4963e-05  1.5396e-06  2.4523e-04  6.1049e-05  0:06:02 1315
   686  5.0145e-04  1.4950e-05  1.5345e-06  2.4452e-04  6.0972e-05  0:04:49 1314
   687  4.9786e-04  1.4936e-05  1.5294e-06  2.4382e-04  6.0889e-05  0:03:51 1313
   688  4.9731e-04  1.4922e-05  1.5248e-06  2.4312e-04  6.0808e-05  0:03:05 1312
   689  4.9536e-04  1.4906e-05  1.5209e-06  2.4242e-04  6.0730e-05  0:02:28 1311
   690  4.9277e-04  1.4892e-05  1.5149e-06  2.4172e-04  6.0655e-05  0:01:58 1310
   691  4.9015e-04  1.4879e-05  1.5105e-06  2.4103e-04  6.0584e-05  0:05:56 1309
   692  4.8785e-04  1.4865e-05  1.5060e-06  2.4034e-04  6.0510e-05  0:04:45 1308
   693  4.8709e-04  1.4852e-05  1.5020e-06  2.3966e-04  6.0437e-05  0:03:48 1307

  iter  continuity  x-velocity  y-velocity           k       omega     time/iter
   694  4.8445e-04  1.4839e-05  1.4980e-06  2.3897e-04  6.0366e-05  0:03:02 1306
   695  4.8213e-04  1.4826e-05  1.4931e-06  2.3830e-04  6.0295e-05  0:02:25 1305
   696  4.7957e-04  1.4812e-05  1.4890e-06  2.3762e-04  6.0224e-05  0:01:56 1304
   697  4.7821e-04  1.4800e-05  1.4838e-06  2.3695e-04  6.0153e-05  0:01:33 1303
   698  4.7785e-04  1.4787e-05  1.4796e-06  2.3628e-04  6.0083e-05  0:05:35 1302
   699  4.7744e-04  1.4774e-05  1.4759e-06  2.3562e-04  6.0012e-05  0:04:28 1301
   700  4.7738e-04  1.4760e-05  1.4723e-06  2.3496e-04  5.9940e-05  0:03:34 1300
   701  4.7889e-04  1.4748e-05  1.4682e-06  2.3430e-04  5.9869e-05  0:02:51 1299
   702  4.7840e-04  1.4737e-05  1.4647e-06  2.3365e-04  5.9799e-05  0:02:17 1298
   703  4.7812e-04  1.4723e-05  1.4622e-06  2.3300e-04  5.9730e-05  0:01:49 1297
   704  4.8265e-04  1.4710e-05  1.4592e-06  2.3236e-04  5.9667e-05  0:05:47 1296

  iter  continuity  x-velocity  y-velocity           k       omega     time/iter
   705  4.8123e-04  1.4697e-05  1.4574e-06  2.3172e-04  5.9603e-05  0:04:37 1295
   706  4.8279e-04  1.4682e-05  1.4554e-06  2.3108e-04  5.9538e-05  0:03:41 1294
   707  4.8093e-04  1.4667e-05  1.4513e-06  2.3044e-04  5.9473e-05  0:02:57 1293
   708  4.7745e-04  1.4651e-05  1.4477e-06  2.2981e-04  5.9407e-05  0:02:22 1292
   709  4.7631e-04  1.4637e-05  1.4436e-06  2.2918e-04  5.9344e-05  0:01:53 1291
   710  4.7139e-04  1.4621e-05  1.4388e-06  2.2855e-04  5.9281e-05  0:01:30 1290
   711  4.6890e-04  1.4606e-05  1.4348e-06  2.2793e-04  5.9219e-05  0:05:30 1289
   712  4.6538e-04  1.4591e-05  1.4310e-06  2.2730e-04  5.9160e-05  0:04:24 1288
   713  4.6197e-04  1.4575e-05  1.4268e-06  2.2669e-04  5.9100e-05  0:03:31 1287
   714  4.5744e-04  1.4561e-05  1.4233e-06  2.2607e-04  5.9040e-05  0:02:49 1286
   715  4.5505e-04  1.4548e-05  1.4202e-06  2.2546e-04  5.8981e-05  0:02:15 1285

  iter  continuity  x-velocity  y-velocity           k       omega     time/iter
   716  4.4996e-04  1.4534e-05  1.4169e-06  2.2485e-04  5.8925e-05  0:01:48 1284
   717  4.4510e-04  1.4522e-05  1.4138e-06  2.2424e-04  5.8867e-05  0:05:43 1283
   718  4.4093e-04  1.4508e-05  1.4109e-06  2.2364e-04  5.8808e-05  0:04:34 1282
   719  4.3601e-04  1.4494e-05  1.4080e-06  2.2304e-04  5.8748e-05  0:03:39 1281
   720  4.3458e-04  1.4482e-05  1.4052e-06  2.2244e-04  5.8688e-05  0:02:55 1280
   721  4.3304e-04  1.4470e-05  1.4026e-06  2.2184e-04  5.8627e-05  0:02:20 1279
   722  4.2961e-04  1.4458e-05  1.4013e-06  2.2124e-04  5.8568e-05  0:06:07 1278
   723  4.2665e-04  1.4447e-05  1.3999e-06  2.2065e-04  5.8510e-05  0:04:54 1277
   724  4.2265e-04  1.4435e-05  1.3997e-06  2.2006e-04  5.8451e-05  0:03:55 1276
   725  4.2027e-04  1.4423e-05  1.3972e-06  2.1948e-04  5.8393e-05  0:03:08 1275
   726  4.1550e-04  1.4413e-05  1.3961e-06  2.1890e-04  5.8335e-05  0:02:30 1274

  iter  continuity  x-velocity  y-velocity           k       omega     time/iter
   727  4.1076e-04  1.4403e-05  1.3951e-06  2.1831e-04  5.8276e-05  0:02:00 1273
   728  4.0627e-04  1.4392e-05  1.3934e-06  2.1774e-04  5.8220e-05  0:05:50 1272
   729  4.0269e-04  1.4382e-05  1.3917e-06  2.1716e-04  5.8164e-05  0:04:40 1271
   730  3.9987e-04  1.4373e-05  1.3918e-06  2.1659e-04  5.8106e-05  0:03:44 1270
   731  3.9767e-04  1.4364e-05  1.3922e-06  2.1602e-04  5.8049e-05  0:02:59 1269
   732  3.9420e-04  1.4356e-05  1.3923e-06  2.1545e-04  5.7987e-05  0:02:23 1268
   733  3.9311e-04  1.4349e-05  1.3924e-06  2.1488e-04  5.7928e-05  0:01:54 1267
   734  3.9170e-04  1.4340e-05  1.3929e-06  2.1432e-04  5.7869e-05  0:01:31 1266
[...]
  1820  2.3556e-04  9.3609e-06  8.3102e-07  3.6280e-05  3.7053e-05  0:00:15  180
  1821  2.3201e-04  9.3537e-06  8.2440e-07  3.6244e-05  3.7052e-05  0:00:48  179
  1822  2.2975e-04  9.3469e-06  8.2301e-07  3.6208e-05  3.7050e-05  0:00:38  178
  1823  2.2939e-04  9.3406e-06  8.2271e-07  3.6173e-05  3.7050e-05  0:00:30  177
  1824  2.2394e-04  9.3344e-06  8.2211e-07  3.6136e-05  3.7049e-05  0:00:24  176
  1825  2.2260e-04  9.3314e-06  8.2406e-07  3.6101e-05  3.7051e-05  0:00:19  175
  1826  2.1902e-04  9.3264e-06  8.2032e-07  3.6067e-05  3.7052e-05  0:00:50  174

  iter  continuity  x-velocity  y-velocity           k       omega     time/iter
  1827  2.1846e-04  9.3240e-06  8.2128e-07  3.6031e-05  3.7054e-05  0:00:40  173
  1828  2.2038e-04  9.3217e-06  8.2050e-07  3.5996e-05  3.7059e-05  0:00:32  172
  1829  2.2224e-04  9.3200e-06  8.1936e-07  3.5963e-05  3.7063e-05  0:00:25  171
  1830  2.2467e-04  9.3189e-06  8.1831e-07  3.5928e-05  3.7067e-05  0:00:20  170
  1831  2.2408e-04  9.3183e-06  8.1894e-07  3.5893e-05  3.7068e-05  0:00:16  169
  1832  2.2520e-04  9.3174e-06  8.1898e-07  3.5858e-05  3.7064e-05  0:00:13  168
  1833  2.2706e-04  9.3158e-06  8.1994e-07  3.5821e-05  3.7058e-05  0:00:43  167
  1834  2.2944e-04  9.3136e-06  8.1636e-07  3.5786e-05  3.7048e-05  0:00:35  166
  1835  2.3338e-04  9.3127e-06  8.1819e-07  3.5750e-05  3.7040e-05  0:00:27  165
  1836  2.3143e-04  9.3102e-06  8.1467e-07  3.5715e-05  3.7031e-05  0:00:22  164
  1837  2.3578e-04  9.3084e-06  8.1894e-07  3.5678e-05  3.7022e-05  0:00:17  163

  iter  continuity  x-velocity  y-velocity           k       omega     time/iter
  1838  2.3283e-04  9.3051e-06  8.1527e-07  3.5642e-05  3.7011e-05  0:00:14  162
  1839  2.3154e-04  9.3029e-06  8.1418e-07  3.5606e-05  3.7003e-05  0:00:43  161
  1840  2.2988e-04  9.3001e-06  8.1640e-07  3.5570e-05  3.6993e-05  0:00:34  160
  1841  2.2428e-04  9.2954e-06  8.1326e-07  3.5534e-05  3.6985e-05  0:00:27  159
  1842  2.2020e-04  9.2893e-06  8.1235e-07  3.5499e-05  3.6976e-05  0:00:22  158
  1843  2.1705e-04  9.2862e-06  8.1155e-07  3.5463e-05  3.6967e-05  0:00:49  157
  1844  2.1366e-04  9.2812e-06  8.1267e-07  3.5428e-05  3.6958e-05  0:00:39  156
  1845  2.1049e-04  9.2763e-06  8.0990e-07  3.5391e-05  3.6948e-05  0:00:31  155
  1846  2.0809e-04  9.2731e-06  8.0988e-07  3.5357e-05  3.6935e-05  0:00:24  154
  1847  2.0779e-04  9.2698e-06  8.0952e-07  3.5322e-05  3.6924e-05  0:00:19  153
  1848  2.0803e-04  9.2679e-06  8.0929e-07  3.5286e-05  3.6911e-05  0:00:15  152

  iter  continuity  x-velocity  y-velocity           k       omega     time/iter
  1849  2.1143e-04  9.2674e-06  8.0886e-07  3.5249e-05  3.6895e-05  0:00:12  151
  1850  2.1279e-04  9.2656e-06  8.0902e-07  3.5213e-05  3.6874e-05  0:00:40  150
  1851  2.1788e-04  9.2647e-06  8.1044e-07  3.5176e-05  3.6854e-05  0:00:32  149
  1852  2.1925e-04  9.2654e-06  8.1095e-07  3.5140e-05  3.6833e-05  0:00:25  148
  1853  2.2287e-04  9.2647e-06  8.1194e-07  3.5103e-05  3.6811e-05  0:00:20  147
  1854  2.2669e-04  9.2643e-06  8.1222e-07  3.5066e-05  3.6790e-05  0:00:16  146
  1855  2.2938e-04  9.2631e-06  8.1241e-07  3.5030e-05  3.6768e-05  0:00:13  145
  1856  2.3110e-04  9.2610e-06  8.1184e-07  3.4993e-05  3.6746e-05  0:00:39  144
  1857  2.3353e-04  9.2572e-06  8.1267e-07  3.4956e-05  3.6724e-05  0:00:31  143
  1858  2.3332e-04  9.2515e-06  8.1088e-07  3.4919e-05  3.6703e-05  0:00:24  142
  1859  2.2860e-04  9.2444e-06  8.0549e-07  3.4882e-05  3.6682e-05  0:00:19  141

  iter  continuity  x-velocity  y-velocity           k       omega     time/iter
  1860  2.2475e-04  9.2379e-06  8.0191e-07  3.4846e-05  3.6661e-05  0:00:15  140
  1861  2.2320e-04  9.2320e-06  8.0150e-07  3.4809e-05  3.6641e-05  0:00:12  139
  1862  2.1884e-04  9.2256e-06  8.0153e-07  3.4773e-05  3.6619e-05  0:00:37  138
  1863  2.1729e-04  9.2197e-06  8.0129e-07  3.4735e-05  3.6592e-05  0:00:30  137
  1864  2.1208e-04  9.2153e-06  7.9886e-07  3.4699e-05  3.6562e-05  0:00:24  136
  1865  2.0910e-04  9.2109e-06  7.9837e-07  3.4662e-05  3.6536e-05  0:00:19  135
  1866  2.0554e-04  9.2087e-06  7.9746e-07  3.4625e-05  3.6507e-05  0:00:15  134
  1867  2.0822e-04  9.2057e-06  7.9876e-07  3.4588e-05  3.6481e-05  0:00:12  133
  1868  2.0975e-04  9.2039e-06  7.9713e-07  3.4550e-05  3.6452e-05  0:00:36  132
  1869  2.1042e-04  9.2024e-06  7.9669e-07  3.4513e-05  3.6426e-05  0:00:28  131
  1870  2.1122e-04  9.2011e-06  7.9572e-07  3.4475e-05  3.6398e-05  0:00:23  130

  iter  continuity  x-velocity  y-velocity           k       omega     time/iter
  1871  2.1169e-04  9.1999e-06  7.9520e-07  3.4439e-05  3.6371e-05  0:00:18  129
  1872  2.1082e-04  9.1987e-06  7.9423e-07  3.4401e-05  3.6345e-05  0:00:14  128
  1873  2.1197e-04  9.1958e-06  7.9246e-07  3.4364e-05  3.6320e-05  0:00:11  127
  1874  2.1446e-04  9.1945e-06  7.9137e-07  3.4327e-05  3.6295e-05  0:00:34  126
  1875  2.1540e-04  9.1934e-06  7.9350e-07  3.4291e-05  3.6272e-05  0:00:27  125
  1876  2.1536e-04  9.1909e-06  7.9054e-07  3.4255e-05  3.6248e-05  0:00:22  124
  1877  2.1111e-04  9.1903e-06  7.9037e-07  3.4219e-05  3.6226e-05  0:00:17  123
  1878  2.1255e-04  9.1881e-06  7.8924e-07  3.4184e-05  3.6206e-05  0:00:14  122
  1879  2.1113e-04  9.1850e-06  7.8979e-07  3.4150e-05  3.6188e-05  0:00:11  121
  1880  2.0955e-04  9.1821e-06  7.8940e-07  3.4114e-05  3.6172e-05  0:00:09  120
  1881  2.1008e-04  9.1784e-06  7.8886e-07  3.4079e-05  3.6160e-05  0:00:31  119

  iter  continuity  x-velocity  y-velocity           k       omega     time/iter
  1882  2.0821e-04  9.1738e-06  7.8796e-07  3.4044e-05  3.6148e-05  0:00:24  118
  1883  2.0806e-04  9.1702e-06  7.8765e-07  3.4011e-05  3.6137e-05  0:00:19  117
  1884  2.0619e-04  9.1658e-06  7.8716e-07  3.3976e-05  3.6125e-05  0:00:15  116
  1885  2.0574e-04  9.1616e-06  7.8854e-07  3.3942e-05  3.6114e-05  0:00:35  115
  1886  2.0284e-04  9.1580e-06  7.8589e-07  3.3908e-05  3.6102e-05  0:00:28  114
  1887  2.0317e-04  9.1567e-06  7.8641e-07  3.3875e-05  3.6093e-05  0:00:22  113
  1888  2.0287e-04  9.1535e-06  7.8620e-07  3.3840e-05  3.6079e-05  0:00:18  112
  1889  2.0483e-04  9.1514e-06  7.8587e-07  3.3806e-05  3.6064e-05  0:00:14  111
  1890  2.0726e-04  9.1488e-06  7.8608e-07  3.3772e-05  3.6050e-05  0:00:11  110
  1891  2.0945e-04  9.1468e-06  7.8644e-07  3.3738e-05  3.6033e-05  0:00:31  109
  1892  2.1367e-04  9.1462e-06  7.8684e-07  3.3703e-05  3.6019e-05  0:00:24  108

  iter  continuity  x-velocity  y-velocity           k       omega     time/iter
  1893  2.1449e-04  9.1451e-06  7.8552e-07  3.3669e-05  3.6003e-05  0:00:19  107
  1894  2.1731e-04  9.1447e-06  7.8834e-07  3.3635e-05  3.5987e-05  0:00:15  106
  1895  2.2035e-04  9.1432e-06  7.8558e-07  3.3601e-05  3.5971e-05  0:00:12  105
  1896  2.2379e-04  9.1426e-06  7.8991e-07  3.3567e-05  3.5956e-05  0:00:10  104
  1897  2.2533e-04  9.1405e-06  7.8510e-07  3.3532e-05  3.5942e-05  0:00:28  103
  1898  2.2906e-04  9.1383e-06  7.8856e-07  3.3499e-05  3.5927e-05  0:00:22  102
  1899  2.2859e-04  9.1346e-06  7.8405e-07  3.3466e-05  3.5913e-05  0:00:18  101
  1900  2.2644e-04  9.1281e-06  7.8347e-07  3.3433e-05  3.5900e-05  0:00:14  100
  1901  2.2353e-04  9.1224e-06  7.8165e-07  3.3400e-05  3.5886e-05  0:00:11   99
  1902  2.2058e-04  9.1150e-06  7.8047e-07  3.3366e-05  3.5874e-05  0:00:09   98
  1903  2.1558e-04  9.1090e-06  7.7910e-07  3.3334e-05  3.5863e-05  0:00:07   97

  iter  continuity  x-velocity  y-velocity           k       omega     time/iter
  1904  2.1075e-04  9.1028e-06  7.7434e-07  3.3302e-05  3.5851e-05  0:00:25   96
  1905  2.0816e-04  9.0977e-06  7.7679e-07  3.3268e-05  3.5841e-05  0:00:20   95
  1906  2.0455e-04  9.0933e-06  7.7267e-07  3.3236e-05  3.5829e-05  0:00:15   94
  1907  2.0425e-04  9.0906e-06  7.7541e-07  3.3204e-05  3.5819e-05  0:00:12   93
  1908  2.0134e-04  9.0881e-06  7.7448e-07  3.3173e-05  3.5811e-05  0:00:10   92
  1909  2.0581e-04  9.0856e-06  7.7337e-07  3.3141e-05  3.5801e-05  0:00:08   91
  1910  2.0927e-04  9.0849e-06  7.7259e-07  3.3109e-05  3.5786e-05  0:00:24   90
  1911  2.0847e-04  9.0839e-06  7.7286e-07  3.3077e-05  3.5774e-05  0:00:19   89
  1912  2.1065e-04  9.0837e-06  7.7258e-07  3.3043e-05  3.5762e-05  0:00:15   88
  1913  2.0842e-04  9.0831e-06  7.7287e-07  3.3012e-05  3.5749e-05  0:00:12   87
  1914  2.0934e-04  9.0820e-06  7.7273e-07  3.2979e-05  3.5736e-05  0:00:09   86

  iter  continuity  x-velocity  y-velocity           k       omega     time/iter
  1915  2.1012e-04  9.0796e-06  7.7175e-07  3.2948e-05  3.5724e-05  0:00:07   85
  1916  2.1129e-04  9.0778e-06  7.7106e-07  3.2916e-05  3.5712e-05  0:00:23   84
  1917  2.1099e-04  9.0760e-06  7.6980e-07  3.2885e-05  3.5700e-05  0:00:18   83
  1918  2.1113e-04  9.0730e-06  7.6927e-07  3.2853e-05  3.5690e-05  0:00:14   82
  1919  2.1029e-04  9.0718e-06  7.6891e-07  3.2822e-05  3.5681e-05  0:00:11   81
  1920  2.0931e-04  9.0698e-06  7.6892e-07  3.2791e-05  3.5672e-05  0:00:09   80
  1921  2.0762e-04  9.0669e-06  7.6993e-07  3.2760e-05  3.5665e-05  0:00:07   79
  1922  2.0727e-04  9.0648e-06  7.6965e-07  3.2730e-05  3.5657e-05  0:00:21   78
  1923  2.0647e-04  9.0630e-06  7.6913e-07  3.2699e-05  3.5651e-05  0:00:17   77
  1924  2.0529e-04  9.0587e-06  7.6901e-07  3.2668e-05  3.5646e-05  0:00:13   76
  1925  2.0253e-04  9.0541e-06  7.6586e-07  3.2638e-05  3.5642e-05  0:00:10   75

  iter  continuity  x-velocity  y-velocity           k       omega     time/iter
  1926  2.0295e-04  9.0512e-06  7.6762e-07  3.2609e-05  3.5638e-05  0:00:08   74
  1927  2.0040e-04  9.0468e-06  7.6481e-07  3.2578e-05  3.5636e-05  0:00:21   73
  1928  1.9978e-04  9.0436e-06  7.6658e-07  3.2548e-05  3.5634e-05  0:00:17   72
  1929  2.0069e-04  9.0408e-06  7.6402e-07  3.2518e-05  3.5631e-05  0:00:13   71
  1930  2.0146e-04  9.0384e-06  7.6555e-07  3.2488e-05  3.5624e-05  0:00:10   70
  1931  2.0029e-04  9.0353e-06  7.6331e-07  3.2457e-05  3.5617e-05  0:00:08   69
  1932  2.0419e-04  9.0339e-06  7.6611e-07  3.2426e-05  3.5610e-05  0:00:06   68
  1933  2.0683e-04  9.0331e-06  7.6615e-07  3.2395e-05  3.5603e-05  0:00:18   67
  1934  2.0922e-04  9.0314e-06  7.6571e-07  3.2366e-05  3.5597e-05  0:00:15   66
  1935  2.0992e-04  9.0306e-06  7.6581e-07  3.2335e-05  3.5592e-05  0:00:11   65
  1936  2.1311e-04  9.0301e-06  7.6547e-07  3.2306e-05  3.5588e-05  0:00:09   64

  iter  continuity  x-velocity  y-velocity           k       omega     time/iter
  1937  2.1481e-04  9.0277e-06  7.6607e-07  3.2276e-05  3.5587e-05  0:00:07   63
  1938  2.1725e-04  9.0261e-06  7.6503e-07  3.2247e-05  3.5585e-05  0:00:06   62
  1939  2.1909e-04  9.0241e-06  7.6479e-07  3.2218e-05  3.5585e-05  0:00:17   61
  1940  2.2017e-04  9.0218e-06  7.6395e-07  3.2188e-05  3.5585e-05  0:00:13   60
  1941  2.2042e-04  9.0190e-06  7.6423e-07  3.2158e-05  3.5587e-05  0:00:10   59
  1942  2.2332e-04  9.0166e-06  7.6311e-07  3.2130e-05  3.5590e-05  0:00:08   58
  1943  2.2254e-04  9.0116e-06  7.6176e-07  3.2102e-05  3.5593e-05  0:00:06   57
  1944  2.2226e-04  9.0079e-06  7.6063e-07  3.2072e-05  3.5598e-05  0:00:05   56
  1945  2.1963e-04  9.0025e-06  7.6051e-07  3.2044e-05  3.5604e-05  0:00:15   55
  1946  2.1700e-04  8.9966e-06  7.5946e-07  3.2017e-05  3.5612e-05  0:00:12   54
  1947  2.1011e-04  8.9899e-06  7.5391e-07  3.1988e-05  3.5612e-05  0:00:09   53

  iter  continuity  x-velocity  y-velocity           k       omega     time/iter
  1948  2.0829e-04  8.9840e-06  7.5663e-07  3.1959e-05  3.5612e-05  0:00:07   52
  1949  2.0383e-04  8.9788e-06  7.5199e-07  3.1931e-05  3.5613e-05  0:00:06   51
  1950  2.0276e-04  8.9763e-06  7.5395e-07  3.1903e-05  3.5616e-05  0:00:04   50
  1951  1.9916e-04  8.9735e-06  7.5089e-07  3.1874e-05  3.5618e-05  0:00:13   49
  1952  2.0341e-04  8.9715e-06  7.5297e-07  3.1847e-05  3.5622e-05  0:00:10   48
  1953  2.0514e-04  8.9701e-06  7.5201e-07  3.1819e-05  3.5627e-05  0:00:08   47
  1954  2.0582e-04  8.9685e-06  7.5156e-07  3.1791e-05  3.5629e-05  0:00:06   46
  1955  2.0830e-04  8.9672e-06  7.5201e-07  3.1762e-05  3.5632e-05  0:00:05   45
  1956  2.0856e-04  8.9669e-06  7.5224e-07  3.1735e-05  3.5636e-05  0:00:04   44
  1957  2.0972e-04  8.9661e-06  7.5194e-07  3.1706e-05  3.5637e-05  0:00:12   43
  1958  2.0948e-04  8.9642e-06  7.5048e-07  3.1679e-05  3.5639e-05  0:00:09   42

  iter  continuity  x-velocity  y-velocity           k       omega     time/iter
  1959  2.1075e-04  8.9616e-06  7.5042e-07  3.1650e-05  3.5634e-05  0:00:07   41
  1960  2.1130e-04  8.9607e-06  7.4979e-07  3.1621e-05  3.5625e-05  0:00:06   40
  1961  2.0935e-04  8.9590e-06  7.4789e-07  3.1593e-05  3.5615e-05  0:00:04   39
  1962  2.1020e-04  8.9573e-06  7.4720e-07  3.1564e-05  3.5602e-05  0:00:03   38
  1963  2.0944e-04  8.9560e-06  7.4657e-07  3.1534e-05  3.5586e-05  0:00:10   37
  1964  2.0883e-04  8.9545e-06  7.4642e-07  3.1506e-05  3.5573e-05  0:00:08   36
  1965  2.0745e-04  8.9526e-06  7.4716e-07  3.1476e-05  3.5559e-05  0:00:06   35
  1966  2.0654e-04  8.9497e-06  7.4724e-07  3.1447e-05  3.5543e-05  0:00:05   34
  1967  2.0500e-04  8.9472e-06  7.4659e-07  3.1416e-05  3.5518e-05  0:00:04   33
  1968  2.0239e-04  8.9434e-06  7.4411e-07  3.1386e-05  3.5494e-05  0:00:03   32
  1969  2.0383e-04  8.9399e-06  7.4567e-07  3.1356e-05  3.5470e-05  0:00:08   31

  iter  continuity  x-velocity  y-velocity           k       omega     time/iter
  1970  2.0157e-04  8.9353e-06  7.4236e-07  3.1325e-05  3.5447e-05  0:00:07   30
  1971  2.0226e-04  8.9319e-06  7.4373e-07  3.1296e-05  3.5425e-05  0:00:05   29
  1972  1.9936e-04  8.9285e-06  7.4093e-07  3.1266e-05  3.5398e-05  0:00:04   28
  1973  1.9812e-04  8.9262e-06  7.4096e-07  3.1234e-05  3.5371e-05  0:00:03   27
  1974  1.9748e-04  8.9228e-06  7.4062e-07  3.1204e-05  3.5346e-05  0:00:08   26
  1975  1.9840e-04  8.9210e-06  7.3988e-07  3.1174e-05  3.5322e-05  0:00:06   25
  1976  1.9913e-04  8.9190e-06  7.3948e-07  3.1144e-05  3.5298e-05  0:00:04   24
  1977  2.0087e-04  8.9172e-06  7.3948e-07  3.1114e-05  3.5276e-05  0:00:03   23
  1978  2.0466e-04  8.9170e-06  7.4161e-07  3.1085e-05  3.5255e-05  0:00:03   22
  1979  2.0788e-04  8.9150e-06  7.3905e-07  3.1056e-05  3.5233e-05  0:00:02   21
  1980  2.1043e-04  8.9150e-06  7.4252e-07  3.1025e-05  3.5208e-05  0:00:06   20

  iter  continuity  x-velocity  y-velocity           k       omega     time/iter
  1981  2.1271e-04  8.9132e-06  7.4216e-07  3.0996e-05  3.5185e-05  0:00:04   19
  1982  2.1537e-04  8.9128e-06  7.4229e-07  3.0966e-05  3.5161e-05  0:00:03   18
  1983  2.1812e-04  8.9118e-06  7.4250e-07  3.0936e-05  3.5139e-05  0:00:02   17
  1984  2.2062e-04  8.9111e-06  7.4185e-07  3.0905e-05  3.5116e-05  0:00:02   16
  1985  2.2247e-04  8.9074e-06  7.4175e-07  3.0877e-05  3.5095e-05  0:00:01   15
  1986  2.2235e-04  8.9041e-06  7.4029e-07  3.0849e-05  3.5072e-05  0:00:04   14
  1987  2.2315e-04  8.8999e-06  7.3929e-07  3.0819e-05  3.5049e-05  0:00:03   13
  1988  2.2099e-04  8.8971e-06  7.3841e-07  3.0790e-05  3.5030e-05  0:00:02   12
  1989  2.2141e-04  8.8929e-06  7.3724e-07  3.0761e-05  3.5009e-05  0:00:02   11
  1990  2.2138e-04  8.8892e-06  7.3597e-07  3.0731e-05  3.4988e-05  0:00:01   10
  1991  2.1941e-04  8.8855e-06  7.3569e-07  3.0702e-05  3.4968e-05  0:00:01    9

  iter  continuity  x-velocity  y-velocity           k       omega     time/iter
  1992  2.1735e-04  8.8814e-06  7.3515e-07  3.0673e-05  3.4943e-05  0:00:02    8
  1993  2.1567e-04  8.8767e-06  7.3116e-07  3.0643e-05  3.4919e-05  0:00:02    7
  1994  2.1268e-04  8.8723e-06  7.3369e-07  3.0613e-05  3.4894e-05  0:00:01    6
  1995  2.0698e-04  8.8675e-06  7.2956e-07  3.0583e-05  3.4869e-05  0:00:01    5
  1996  2.0530e-04  8.8633e-06  7.2851e-07  3.0553e-05  3.4844e-05  0:00:00    4
  1997  2.0419e-04  8.8608e-06  7.2785e-07  3.0524e-05  3.4819e-05  0:00:00    3
  1998  2.0367e-04  8.8592e-06  7.2728e-07  3.0494e-05  3.4794e-05  0:00:01    2
  1999  2.0715e-04  8.8568e-06  7.2732e-07  3.0465e-05  3.4769e-05  0:00:00    1
  2000  2.0954e-04  8.8549e-06  7.3103e-07  3.0435e-05  3.4744e-05  0:00:00    0

> 
adjoint/                parallel/               server/
define/                 parametric-study/       solve/
display/                plot/                   surface/
exit                    preferences/            views/
file/                   print-license-usage
mesh/                   report/

> ;create rakes
surface/rake-surface cv_inlet -0.005 -0.065 -0.005 0.065 1000

> surface/rake-surface cv_outlet 1.005 -0.065 1.005 0.065 1000

> surface/rake-surface cv_top -0.005 0.065 1.005 0.065 1000

> surface/rake-surface cv_bottom -0.005 -0.065 1.005 -0.065 1000

> surface/point-surface free-stream -15 0

> 
adjoint/                parallel/               server/
define/                 parametric-study/       solve/
display/                plot/                   surface/
exit                    preferences/            views/
file/                   print-license-usage
mesh/                   report/

> ;export data
file/export/ascii NP_CVinlet_data cv_inlet () no pressure x-velocity y-velocity dx-velocity-dx dx-velocity-dy dy-velocity-dx dy-velocity-dy q no 
Writing "NP_CVinlet_data"...

Writing information to ascii file ...
Done.

ok


Overwrite confirmations (/file/set-batch-options ...)
are on -- will therefore ignore the following journal
Error: invalid command: ok


> file/export/ascii NP_CVoutlet_data cv_outlet () no pressure x-velocity y-velocity dx-velocity-dx dx-velocity-dy dy-velocity-dx dy-velocity-dy q no 
Writing "NP_CVoutlet_data"...

Writing information to ascii file ...
Done.

ok


Overwrite confirmations (/file/set-batch-options ...)
are on -- will therefore ignore the following journal
Error: invalid command: ok


> file/export/ascii NP_CVtop_data cv_top () no pressure x-velocity y-velocity dx-velocity-dx dx-velocity-dy dy-velocity-dx dy-velocity-dy q no 
Writing "NP_CVtop_data"...

Writing information to ascii file ...
Done.

ok


Overwrite confirmations (/file/set-batch-options ...)
are on -- will therefore ignore the following journal
Error: invalid command: ok


> file/export/ascii NP_CVbottom_data cv_bottom () no pressure x-velocity y-velocity dx-velocity-dx dx-velocity-dy dy-velocity-dx dy-velocity-dy q no 
Writing "NP_CVbottom_data"...

Writing information to ascii file ...
Done.

ok


Overwrite confirmations (/file/set-batch-options ...)
are on -- will therefore ignore the following journal
Error: invalid command: ok


> file/export/ascii air_properties free-stream () no density viscosity-lam q no 
Writing "air_properties"...

Writing information to ascii file ...
Done.

ok


Overwrite confirmations (/file/set-batch-options ...)
are on -- will therefore ignore the following journal
Error: invalid command: ok


> 
adjoint/                parallel/               server/
define/                 parametric-study/       solve/
display/                plot/                   surface/
exit                    preferences/            views/
file/                   print-license-usage
mesh/                   report/

> ;flag file to know when simulation is over
file/export/ascii flag_file free-stream () no pressure q no 
Writing "flag_file"...

Writing information to ascii file ...
Done.

ok


Overwrite confirmations (/file/set-batch-options ...)
are on -- will therefore ignore the following journal
Error: invalid command: ok


> 
adjoint/                parallel/               server/
define/                 parametric-study/       solve/
display/                plot/                   surface/
exit                    preferences/            views/
file/                   print-license-usage
mesh/                   report/

